# CIF file generated by openbabel 2.4.90, see http://openbabel.sf.net
data_I
_chemical_name_common ''
_cell_length_a 6.5472
_cell_length_b 7.5305
_cell_length_c 12.7118
_cell_angle_alpha 107.23
_cell_angle_beta 103.555
_cell_angle_gamma 90
_space_group_name_H-M_alt 'P 1'
_space_group_name_Hall 'P 1'
loop_
    _symmetry_equiv_pos_as_xyz
    x,y,z
loop_
    _atom_site_label
    _atom_site_type_symbol
    _atom_site_fract_x
    _atom_site_fract_y
    _atom_site_fract_z
    _atom_site_occupancy
    C0      C    0.06860   0.08680   0.71160   1.000
    C1      C    0.20100   0.00450   0.63300   1.000
    C2      C    0.22940   0.90170   0.43940   1.000
    C3      C    0.15400   0.08900   0.82600   1.000
    C4      C    0.09600   0.96100   0.51600   1.000
    C5      C    0.87100   0.13300   0.67800   1.000
    C6      C    0.43140   0.37520   0.28840   1.000
    C7      C    0.29900   0.37150   0.36700   1.000
    C8      C    0.27060   0.46230   0.56060   1.000
    C9      C    0.34600   0.26300   0.17400   1.000
    C10     C    0.40400   0.44500   0.48400   1.000
    C11     C    0.62900   0.45500   0.32200   1.000
    C12     C    0.93140   0.91320   0.28840   1.000
    C13     C    0.79900   0.99550   0.36700   1.000
    C14     C    0.77060   0.09830   0.56060   1.000
    C15     C    0.84600   0.91100   0.17400   1.000
    C16     C    0.90400   0.03900   0.48400   1.000
    C17     C    0.12900   0.86700   0.32200   1.000
    C18     C    0.56860   0.62480   0.71160   1.000
    C19     C    0.70100   0.62850   0.63300   1.000
    C20     C    0.72940   0.53770   0.43940   1.000
    C21     C    0.65400   0.73700   0.82600   1.000
    C22     C    0.59600   0.55500   0.51600   1.000
    C23     C    0.37100   0.54500   0.67800   1.000
    O24     O    0.06100   0.12850   0.90700   1.000
    O25     O    0.34840   0.07040   0.86440   1.000
    O26     O    0.43900   0.22150   0.09300   1.000
    O27     O    0.15160   0.20600   0.13560   1.000
    O28     O    0.93900   0.87150   0.09300   1.000
    O29     O    0.65160   0.92960   0.13560   1.000
    O30     O    0.56100   0.77850   0.90700   1.000
    O31     O    0.84840   0.79400   0.86440   1.000
    O32     O    0.25000   0.90100   0.00000   1.000
    O33     O    0.75000   0.09900   0.00000   1.000
    H34     H    0.37228   0.98088   0.66791   1.000
    H35     H    0.40317   0.88523   0.47373   1.000
    H36     H    0.77996   0.20144   0.74384   1.000
    H37     H    0.12772   0.31297   0.33209   1.000
    H38     H    0.09683   0.41150   0.52627   1.000
    H39     H    0.72004   0.45760   0.25616   1.000
    H40     H    0.62772   0.01912   0.33209   1.000
    H41     H    0.59561   0.11828   0.53353   1.000
    H42     H    0.22004   0.79856   0.25616   1.000
    H43     H    0.87228   0.68703   0.66791   1.000
    H44     H    0.90439   0.58475   0.46647   1.000
    H45     H    0.28343   0.54427   0.74555   1.000
loop_
    _geom_bond_atom_site_label_1
    _geom_bond_atom_site_label_2
    _geom_bond_distance
    _geom_bond_site_symmetry_2
    _ccdc_geom_bond_type
    O26    C9        1.27744      .   S
    O28    C15       1.27744      .   S
    O27    C9        1.27559      .   S
    O29    C15       1.27559      .   S
    C9     C6        1.42557      .   S
    C15    C12       1.42558      .   S
    H39    C11       1.14004      .   S
    H42    C17       1.14004      .   S
    C6     C11       1.34395      .   S
    C6     C7        1.47411      .   S
    C12    C17       1.34395  1_655   S
    C12    C13       1.47410      .   S
    C11    C20       1.42711      .   S
    C17    C2        1.42712      .   S
    H37    C7        1.14000      .   S
    H40    C13       1.14000  1_545   S
    C13    C16       1.42268  1_565   S
    C7     C10       1.42267      .   S
    C2     H35       1.13997      .   S
    C2     C4        1.43228      .   S
    C20    H44       1.13997      .   S
    C20    C22       1.43228      .   S
    C16    C4        1.41157  1_645   S
    C16    C14       1.43228      .   S
    C10    C22       1.41157      .   S
    C10    C8        1.43228      .   S
    C22    C19       1.42267      .   S
    C4     C1        1.42268  1_565   S
    H38    C8        1.13997      .   S
    H41    C14       1.13997      .   S
    C14    C5        1.42712      .   S
    C8     C23       1.42711      .   S
    C19    H43       1.14000      .   S
    C19    C18       1.47411      .   S
    C1     H34       1.14000  1_545   S
    C1     C0        1.47410      .   S
    C23    C18       1.34395      .   S
    C23    H45       1.14002      .   S
    C5     C0        1.34395  1_655   S
    C5     H36       1.14004      .   S
    C0     C3        1.42558      .   S
    C18    C21       1.42557      .   S
    C3     O25       1.27559      .   S
    C3     O24       1.27744      .   S
    C21    O31       1.27559      .   S
    C21    O30       1.27744      .   S
