# CIF file generated by openbabel 2.4.90, see http://openbabel.sf.net
data_I
_chemical_name_common ''
_cell_length_a 6.5472
_cell_length_b 7.5305
_cell_length_c 12.7118
_cell_angle_alpha 107.23
_cell_angle_beta 103.555
_cell_angle_gamma 90
_space_group_name_H-M_alt 'P 1'
_space_group_name_Hall 'P 1'
loop_
    _symmetry_equiv_pos_as_xyz
    x,y,z
loop_
    _atom_site_label
    _atom_site_type_symbol
    _atom_site_fract_x
    _atom_site_fract_y
    _atom_site_fract_z
    _atom_site_occupancy
    Zr0     Zr   0.00000   0.00000   0.00000   1.000
    Zr1     Zr   0.50000   0.00000   0.00000   1.000
    N2      N    0.50021   0.49991   0.49975   1.000
    O3      O    0.28801   0.30146   0.28377   1.000
    O4      O    0.71221   0.69846   0.71597   1.000
    O5      O    0.48486   0.30533   0.27312   1.000
    O6      O    0.51536   0.69458   0.72662   1.000
    N7      N    0.99994   0.00016   0.50033   1.000
    O8      O    0.78787   0.98248   0.28407   1.000
    O9      O    0.01522   0.03220   0.72692   1.000
    O10     O    0.21207   0.01768   0.71627   1.000
    O11     O    0.98472   0.96795   0.27342   1.000
    N12     N    0.25000   0.90100   0.00000   1.000
    O13     O    0.31250   0.92575   0.00000   1.000
    O14     O    0.18750   0.92575   0.00000   1.000
    N15     N    0.75000   0.09900   0.00000   1.000
    O16     O    0.81250   0.07425   0.00000   1.000
    O17     O    0.68750   0.07425   0.00000   1.000
loop_
    _geom_bond_atom_site_label_1
    _geom_bond_atom_site_label_2
    _geom_bond_distance
    _geom_bond_site_symmetry_2
    _ccdc_geom_bond_type
    N2     O3        2.73540      .   S
    Zr0    O3        3.69889      .   S
    N2     O4        2.73750      .   S
    Zr0    O4        3.70087  1_444   S
    N2     O5        2.79637      .   S
    Zr1    O5        3.57531      .   S
    N2     O6        2.79958      .   S
    Zr1    O6        3.57842  1_544   S
    N7     O8        2.73809  1_545   S
    Zr1    O8        3.70146  1_545   S
    N7     O9        2.79599  1_655   S
    Zr0    O9        3.57495  1_554   S
    N7     O10       2.73483  1_655   S
    Zr1    O10       3.69832  1_554   S
    N7     O11       2.79998  1_545   S
    Zr0    O11       3.57881  1_445   S
    N12    O13       0.44965      .   S
    Zr1    O13       1.34894  1_545   S
    N12    O14       0.44965      .   S
    Zr0    O14       1.34894  1_545   S
    N15    O16       0.44965      .   S
    Zr0    O16       1.34894  1_455   S
    N15    O17       0.44965      .   S
    Zr1    O17       1.34894      .   S
