# CIF file generated by openbabel 2.4.90, see http://openbabel.sf.net
data_I
_chemical_name_common ''
_cell_length_a 6.5472
_cell_length_b 7.5305
_cell_length_c 12.7118
_cell_angle_alpha 107.23
_cell_angle_beta 103.555
_cell_angle_gamma 90
_space_group_name_H-M_alt 'P 1'
_space_group_name_Hall 'P 1'
loop_
    _symmetry_equiv_pos_as_xyz
    x,y,z
loop_
    _atom_site_label
    _atom_site_type_symbol
    _atom_site_fract_x
    _atom_site_fract_y
    _atom_site_fract_z
    _atom_site_occupancy
    Al0     Al   0.50000   0.00000   0.00000   1.000
    C1      C    0.15400   0.08900   0.82600   1.000
    C2      C    0.34600   0.26300   0.17400   1.000
    C3      C    0.84600   0.91100   0.17400   1.000
    C4      C    0.65400   0.73700   0.82600   1.000
    O5      O    0.06100   0.12850   0.90700   1.000
    O6      O    0.34840   0.07040   0.86440   1.000
    Al7     Al   0.00000   0.00000   0.00000   1.000
    O8      O    0.43900   0.22150   0.09300   1.000
    O9      O    0.15160   0.20600   0.13560   1.000
    O10     O    0.93900   0.87150   0.09300   1.000
    O11     O    0.65160   0.92960   0.13560   1.000
    O12     O    0.56100   0.77850   0.90700   1.000
    O13     O    0.84840   0.79400   0.86440   1.000
    O14     O    0.25000   0.90100   0.00000   1.000
    O15     O    0.75000   0.09900   0.00000   1.000
loop_
    _geom_bond_atom_site_label_1
    _geom_bond_atom_site_label_2
    _geom_bond_distance
    _geom_bond_site_symmetry_2
    _ccdc_geom_bond_type
    Al0    O14       1.79859  1_545   S
    Al0    O15       1.79859      .   S
    Al0    O8        1.84186      .   S
    Al0    O11       1.99419  1_545   S
    Al0    O6        1.99419  1_554   S
    Al0    O12       1.84186  1_544   S
    Al7    O14       1.79859  1_545   S
    Al7    O15       1.79859  1_455   S
    Al7    O10       1.84188  1_445   S
    Al7    O9        1.99418      .   S
    Al7    O13       1.99418  1_444   S
    Al7    O5        1.84188  1_554   S
    O8     C2        1.27744      .   S
    O10    C3        1.27744      .   S
    O9     C2        1.27559      .   S
    O11    C3        1.27559      .   S
    C1     O6        1.27559      .   S
    C1     O5        1.27744      .   S
    C4     O13       1.27559      .   S
    C4     O12       1.27744      .   S
