# CIF file generated by openbabel 2.4.90, see http://openbabel.sf.net
data_I
_chemical_name_common ''
_cell_length_a 6.5472
_cell_length_b 7.5305
_cell_length_c 12.7118
_cell_angle_alpha 107.23
_cell_angle_beta 103.555
_cell_angle_gamma 90
_space_group_name_H-M_alt 'P 1'
_space_group_name_Hall 'P 1'
loop_
    _symmetry_equiv_pos_as_xyz
    x,y,z
loop_
    _atom_site_label
    _atom_site_type_symbol
    _atom_site_fract_x
    _atom_site_fract_y
    _atom_site_fract_z
    _atom_site_occupancy
    C0      C    0.15400   0.08900   0.82600   1.000
    C1      C    0.34600   0.26300   0.17400   1.000
    C2      C    0.84600   0.91100   0.17400   1.000
    C3      C    0.65400   0.73700   0.82600   1.000
