# CIF file generated by openbabel 2.4.90, see http://openbabel.sf.net
data_I
_chemical_name_common ''
_cell_length_a 6.5472
_cell_length_b 7.5305
_cell_length_c 12.7118
_cell_angle_alpha 107.23
_cell_angle_beta 103.555
_cell_angle_gamma 90
_space_group_name_H-M_alt 'P 1'
_space_group_name_Hall 'P 1'
loop_
    _symmetry_equiv_pos_as_xyz
    x,y,z
loop_
    _atom_site_label
    _atom_site_type_symbol
    _atom_site_fract_x
    _atom_site_fract_y
    _atom_site_fract_z
    _atom_site_occupancy
    Zr0     Zr   0.00000   0.00000   0.00000   1.000
    Zr1     Zr   0.50000   0.00000   0.00000   1.000
    Zr2     Zr   0.25000   0.90100   0.00000   1.000
    Zr3     Zr   0.75000   0.09900   0.00000   1.000
    O4      O    0.37500   0.95050   0.00000   1.000
    O5      O    0.62500   0.04950   0.00000   1.000
    O6      O    0.12500   0.95050   0.00000   1.000
    O7      O    0.87500   0.04950   0.00000   1.000
    N8      N    0.50029   0.49988   0.49965   1.000
    N9      N    0.99992   0.00022   0.50045   1.000
    C10     C    0.81220   0.90403   0.13420   1.000
    O11     O    0.87826   0.93010   0.25001   1.000
    O12     O    0.89085   0.91989   0.09035   1.000
    O13     O    0.69400   0.93442   0.10100   1.000
    C14     C    0.68780   0.76983   0.86580   1.000
    O15     O    0.60915   0.82954   0.90965   1.000
    O16     O    0.80600   0.83342   0.89900   1.000
    O17     O    0.62180   0.68011   0.75001   1.000
    C18     C    0.18780   0.09597   0.86580   1.000
    O19     O    0.12171   0.07001   0.75021   1.000
    O20     O    0.10915   0.08011   0.90965   1.000
    O21     O    0.30600   0.06558   0.89900   1.000
    C22     C    0.31220   0.23017   0.13420   1.000
    O23     O    0.19400   0.16658   0.10100   1.000
    O24     O    0.39085   0.17046   0.09035   1.000
    O25     O    0.37835   0.31983   0.24981   1.000
loop_
    _geom_bond_atom_site_label_1
    _geom_bond_atom_site_label_2
    _geom_bond_distance
    _geom_bond_site_symmetry_2
    _ccdc_geom_bond_type
    Zr1    O4        0.89929  1_545   S
    Zr2    O4        0.89929      .   S
    Zr1    O5        0.89929      .   S
    Zr3    O5        0.89929      .   S
    Zr0    O6        0.89929  1_545   S
    Zr2    O6        0.89929      .   S
    Zr0    O7        0.89929  1_455   S
    Zr3    O7        0.89929      .   S
    C10    O11       1.38683      .   S
    N9     O11       2.97720  1_545   S
    C10    O12       0.87414      .   S
    Zr0    O12       1.72884  1_445   S
    C10    O13       0.85642      .   S
    Zr1    O13       1.76545  1_545   S
    C14    O15       0.87413      .   S
    Zr1    O15       1.72883  1_544   S
    C14    O16       0.85642      .   S
    Zr0    O16       1.76544  1_444   S
    C14    O17       1.38648      .   S
    N8     O17       2.97619      .   S
    C18    O19       1.38426      .   S
    N9     O19       2.96930  1_655   S
    C18    O20       0.87414      .   S
    Zr0    O20       1.72884  1_554   S
    C18    O21       0.85642      .   S
    Zr1    O21       1.76545  1_554   S
    C22    O23       0.85642      .   S
    Zr0    O23       1.76544      .   S
    C22    O24       0.87413      .   S
    Zr1    O24       1.72883      .   S
    C22    O25       1.38460      .   S
    N8     O25       2.97029      .   S
