# CIF file generated by openbabel 2.4.90, see http://openbabel.sf.net
data_I
_chemical_name_common ''
_cell_length_a 24.7318
_cell_length_b 24.7318
_cell_length_c 24.7318
_cell_angle_alpha 127.653
_cell_angle_beta 127.653
_cell_angle_gamma 77.1881
_space_group_name_H-M_alt 'P 1'
_space_group_name_Hall 'P 1'
loop_
    _symmetry_equiv_pos_as_xyz
    x,y,z
loop_
    _atom_site_label
    _atom_site_type_symbol
    _atom_site_fract_x
    _atom_site_fract_y
    _atom_site_fract_z
    _atom_site_occupancy
    C0      C    0.67127   0.49117   0.66770   1.000
    C1      C    0.80425   0.50915   0.80950   1.000
    C2      C    0.87325   0.51255   0.88210   1.000
    C3      C    0.60238   0.48688   0.59510   1.000
    C4      C    0.20026   0.62516   0.03990   1.000
    C5      C    0.09400   0.63040   0.93040   1.000
    C6      C    0.01020   0.25280   0.70800   1.000
    C7      C    0.72820   0.54480   0.71940   1.000
    C8      C    0.79284   0.55294   0.78850   1.000
    C9      C    0.00553   0.31743   0.76370   1.000
    C10     C    0.14750   0.72400   0.08170   1.000
    N11     N    0.16224   0.67314   0.01890   1.000
    Cl12    Cl   0.99082   0.14068   0.76508   1.000
    Cl13    Cl   0.01102   0.38373   0.76001   1.000
    O14     O    0.86935   0.49565   0.91790   1.000
    O15     O    0.92840   0.53080   0.89880   1.000
    O16     O    0.54716   0.47156   0.58000   1.000
    O17     O    0.94963   0.39453   0.89470   1.000
    H18     H    0.21020   0.58501   0.99093   1.000
    H19     H    0.25275   0.65742   0.10774   1.000
    H20     H    0.06367   0.66664   0.91421   1.000
    H21     H    0.10475   0.59162   0.88192   1.000
    H22     H    0.01827   0.24506   0.66318   1.000
    H23     H    0.72167   0.58252   0.70482   1.000
    H24     H    0.19935   0.75657   0.15018   1.000
    H25     H    0.11793   0.76043   0.06542   1.000
    C26     C    0.82347   0.00357   0.33230   1.000
    C27     C    0.69965   0.99475   0.19050   1.000
    C28     C    0.63045   0.99115   0.11790   1.000
    C29     C    0.89178   0.00728   0.40490   1.000
    C30     C    0.58526   0.16036   0.96010   1.000
    C31     C    0.70000   0.16360   0.06960   1.000
    C32     C    0.54480   0.30220   0.29200   1.000
    C33     C    0.82540   0.00880   0.28060   1.000
    C34     C    0.76444   0.00434   0.21150   1.000
    C35     C    0.55373   0.24183   0.23630   1.000
    C36     C    0.64230   0.06580   0.91830   1.000
    N37     N    0.65424   0.14334   0.98110   1.000
    Cl38    Cl   0.37560   0.22574   0.23492   1.000
    Cl39    Cl   0.62372   0.25101   0.23999   1.000
    O40     O    0.57775   0.95145   0.08210   1.000
    O41     O    0.63200   0.02960   0.10120   1.000
    O42     O    0.89156   0.96716   0.42000   1.000
    O43     O    0.49983   0.05493   0.10530   1.000
    H44     H    0.59408   0.21927   0.00907   1.000
    H45     H    0.54968   0.14501   0.89226   1.000
    H46     H    0.75243   0.14946   0.08579   1.000
    H47     H    0.70970   0.22283   0.11808   1.000
    H48     H    0.58188   0.35510   0.33682   1.000
    H49     H    0.87770   0.01685   0.29518   1.000
    H50     H    0.60638   0.04917   0.84982   1.000
    H51     H    0.69500   0.05251   0.93458   1.000
    C52     C    0.24117   0.07347   0.31990   1.000
    C53     C    0.25915   0.94965   0.20490   1.000
    C54     C    0.26255   0.88045   0.13930   1.000
    C55     C    0.23688   0.14178   0.38450   1.000
    C56     C    0.37516   0.83526   0.92490   1.000
    C57     C    0.38040   0.95000   0.03640   1.000
    C58     C    0.00280   0.79480   0.74260   1.000
    C59     C    0.29480   0.07540   0.31660   1.000
    C60     C    0.30294   0.01444   0.26010   1.000
    C61     C    0.06743   0.80373   0.81190   1.000
    C62     C    0.47400   0.89230   0.07650   1.000
    N63     N    0.42314   0.90424   0.01090   1.000
    Cl64    Cl   0.89068   0.62560   0.64986   1.000
    Cl65    Cl   0.13373   0.87372   0.87271   1.000
    O66     O    0.24565   0.82775   0.12630   1.000
    O67     O    0.28080   0.88200   0.10240   1.000
    O68     O    0.22156   0.14156   0.42440   1.000
    O69     O    0.14453   0.74983   0.94490   1.000
    H70     H    0.33501   0.84408   0.87480   1.000
    H71     H    0.40742   0.79968   0.90467   1.000
    H72     H    0.41664   0.00243   0.10297   1.000
    H73     H    0.34162   0.95970   0.98687   1.000
    H74     H    0.99506   0.83188   0.72678   1.000
    H75     H    0.33252   0.12770   0.36085   1.000
    H76     H    0.50657   0.85638   0.05722   1.000
    H77     H    0.51043   0.94500   0.14249   1.000
    C78     C    0.75357   0.92127   0.68010   1.000
    C79     C    0.74475   0.05425   0.79510   1.000
    C80     C    0.74115   0.12325   0.86070   1.000
    C81     C    0.75728   0.85238   0.61550   1.000
    C82     C    0.91036   0.45026   0.07510   1.000
    C83     C    0.91360   0.34400   0.96360   1.000
    C84     C    0.05220   0.26020   0.25740   1.000
    C85     C    0.75880   0.97820   0.68340   1.000
    C86     C    0.75434   0.04284   0.73990   1.000
    C87     C    0.99183   0.25553   0.18810   1.000
    C88     C    0.81580   0.39750   0.92350   1.000
    N89     N    0.89334   0.41224   0.98910   1.000
    Cl90    Cl   0.97574   0.24082   0.35014   1.000
    Cl91    Cl   0.00101   0.26102   0.12729   1.000
    O92     O    0.70145   0.11935   0.87370   1.000
    O93     O    0.77960   0.17840   0.89760   1.000
    O94     O    0.71716   0.79716   0.57560   1.000
    O95     O    0.80493   0.19963   0.05510   1.000
    C96     C    0.18257   0.49447   0.23630   1.000
    C97     C    0.77600   0.35250   0.91830   1.000
    N98     N    0.82686   0.33776   0.98110   1.000
    H99     H    0.96927   0.46020   0.12520   1.000
    H100    H    0.89501   0.50275   0.09533   1.000
    H101    H    0.89946   0.31367   0.89703   1.000
    H102    H    0.97283   0.35475   0.01313   1.000
    H103    H    0.10510   0.26827   0.27322   1.000
    H104    H    0.76685   0.97167   0.63915   1.000
    H105    H    0.79917   0.44935   0.94278   1.000
    H106    H    0.80251   0.36793   0.85751   1.000
    C107    C    0.42653   0.25883   0.68010   1.000
    C108    C    0.55035   0.24085   0.79510   1.000
    C109    C    0.61955   0.23745   0.86070   1.000
    C110    C    0.35822   0.26312   0.61550   1.000
    C111    C    0.66474   0.12484   0.07510   1.000
    C112    C    0.55000   0.11960   0.96360   1.000
    C113    C    0.70520   0.49720   0.25740   1.000
    C114    C    0.42460   0.20520   0.68340   1.000
    C115    C    0.48556   0.19706   0.73990   1.000
    C116    C    0.69627   0.43257   0.18810   1.000
    C117    C    0.60770   0.02600   0.92350   1.000
    N118    N    0.59576   0.07686   0.98910   1.000
    Cl119   Cl   0.87440   0.60932   0.35014   1.000
    Cl120   Cl   0.62628   0.36627   0.12729   1.000
    O121    O    0.67225   0.25435   0.87370   1.000
    O122    O    0.61800   0.21920   0.89760   1.000
    O123    O    0.35844   0.27844   0.57560   1.000
    O124    O    0.75017   0.35547   0.05510   1.000
    H125    H    0.65592   0.16499   0.12520   1.000
    Cl126   Cl   0.37440   0.02426   0.26508   1.000
    Cl127   Cl   0.12628   0.99899   0.26001   1.000
    O128    O    0.17225   0.29855   0.41790   1.000
    O129    O    0.11800   0.22040   0.39880   1.000
    H130    H    0.70032   0.09258   0.09533   1.000
    H131    H    0.49757   0.08336   0.89703   1.000
    H132    H    0.54030   0.15838   0.01313   1.000
    H133    H    0.66812   0.50494   0.27322   1.000
    H134    H    0.37230   0.16748   0.63915   1.000
    H135    H    0.64362   0.99343   0.94278   1.000
    H136    H    0.55500   0.98957   0.85751   1.000
    C137    C    0.57873   0.74643   0.31990   1.000
    C138    C    0.44575   0.75525   0.20490   1.000
    C139    C    0.37675   0.75885   0.13930   1.000
    C140    C    0.64762   0.74272   0.38450   1.000
    C141    C    0.04974   0.58964   0.92490   1.000
    C142    C    0.15600   0.58640   0.03640   1.000
    C143    C    0.23980   0.44780   0.74260   1.000
    C144    C    0.52180   0.74120   0.31660   1.000
    C145    C    0.45716   0.74566   0.26010   1.000
    C146    C    0.24447   0.50817   0.81190   1.000
    C147    C    0.10250   0.68420   0.07650   1.000
    N148    N    0.08776   0.60666   0.01090   1.000
    Cl149   Cl   0.25918   0.52426   0.64986   1.000
    Cl150   Cl   0.23898   0.49899   0.87271   1.000
    O151    O    0.38065   0.79855   0.12630   1.000
    O152    O    0.32160   0.72040   0.10240   1.000
    O153    O    0.70284   0.78284   0.42440   1.000
    O154    O    0.30037   0.69507   0.94490   1.000
    H155    H    0.03980   0.53073   0.87480   1.000
    H156    H    0.99725   0.60499   0.90467   1.000
    H157    H    0.18633   0.60054   0.10297   1.000
    H158    H    0.14525   0.52717   0.98687   1.000
    H159    H    0.23173   0.39490   0.72678   1.000
    H160    H    0.52833   0.73315   0.36085   1.000
    H161    H    0.05065   0.70083   0.05722   1.000
    H162    H    0.13207   0.69749   0.14249   1.000
    C163    C    0.49643   0.67653   0.66770   1.000
    C164    C    0.50525   0.80035   0.80950   1.000
    C165    C    0.50885   0.86955   0.88210   1.000
    C166    C    0.49272   0.60822   0.59510   1.000
    C167    C    0.33964   0.91474   0.03990   1.000
    C168    C    0.33640   0.80000   0.93040   1.000
    C169    C    0.19780   0.95520   0.70800   1.000
    C170    C    0.49120   0.67460   0.71940   1.000
    C171    C    0.49566   0.73556   0.78850   1.000
    C172    C    0.25817   0.94627   0.76370   1.000
    C173    C    0.43420   0.85770   0.08170   1.000
    N174    N    0.35666   0.84576   0.01890   1.000
    Cl175   Cl   0.27426   0.12440   0.76508   1.000
    Cl176   Cl   0.24899   0.87628   0.76001   1.000
    O177    O    0.54855   0.92225   0.91790   1.000
    O178    O    0.47040   0.86800   0.89880   1.000
    O179    O    0.53284   0.60844   0.58000   1.000
    O180    O    0.44507   0.00017   0.89470   1.000
    H181    H    0.28073   0.90592   0.99093   1.000
    H182    H    0.35499   0.95032   0.10774   1.000
    H183    H    0.35054   0.74757   0.91421   1.000
    H184    H    0.27717   0.79030   0.88192   1.000
    H185    H    0.14490   0.91812   0.66318   1.000
    H186    H    0.48315   0.62230   0.70482   1.000
    H187    H    0.45083   0.89362   0.15018   1.000
    H188    H    0.44749   0.80500   0.06542   1.000
    C189    C    0.00883   0.82873   0.33230   1.000
    C190    C    0.99085   0.69575   0.19050   1.000
    C191    C    0.98745   0.62675   0.11790   1.000
    C192    C    0.01312   0.89762   0.40490   1.000
    C193    C    0.87484   0.29974   0.96010   1.000
    C194    C    0.86960   0.40600   0.06960   1.000
    C195    C    0.24720   0.48980   0.29200   1.000
    C196    C    0.95520   0.77180   0.28060   1.000
    C197    C    0.94706   0.70716   0.21150   1.000
    H198    H    0.46927   0.34408   0.50907   1.000
    H199    H    0.39501   0.29968   0.39226   1.000
    H200    H    0.39946   0.50243   0.58579   1.000
    H201    H    0.47283   0.45970   0.61808   1.000
    H202    H    0.60510   0.33188   0.83682   1.000
    H203    H    0.26685   0.62770   0.79518   1.000
    Cl204   Cl   0.35932   0.50918   0.23492   1.000
    Cl205   Cl   0.11627   0.48898   0.23999   1.000
    O206    O    0.00435   0.63065   0.08210   1.000
    O207    O    0.96920   0.57160   0.10120   1.000
    O208    O    0.02844   0.95284   0.42000   1.000
    O209    O    0.10547   0.55037   0.10530   1.000
    H210    H    0.91499   0.28980   0.00907   1.000
    H211    H    0.84258   0.24725   0.89226   1.000
    H212    H    0.83336   0.43633   0.08579   1.000
    H213    H    0.90838   0.39525   0.11808   1.000
    H214    H    0.25494   0.48173   0.33682   1.000
    H215    H    0.91748   0.77833   0.29518   1.000
    H216    H    0.74343   0.30065   0.84982   1.000
    H217    H    0.73957   0.38207   0.93458   1.000
    C218    C    0.07873   0.75883   0.83230   1.000
    C219    C    0.94575   0.74085   0.69050   1.000
    C220    C    0.87675   0.73745   0.61790   1.000
    C221    C    0.14762   0.76312   0.90490   1.000
    C222    C    0.54974   0.62484   0.46010   1.000
    C223    C    0.65600   0.61960   0.56960   1.000
    C224    C    0.73980   0.99720   0.79200   1.000
    C225    C    0.02180   0.70520   0.78060   1.000
    C226    C    0.95716   0.69706   0.71150   1.000
    C227    C    0.74447   0.93257   0.73630   1.000
    C228    C    0.60250   0.52600   0.41830   1.000
    N229    N    0.58776   0.57686   0.48110   1.000
    Cl230   Cl   0.75918   0.10932   0.73492   1.000
    Cl231   Cl   0.73898   0.86627   0.73999   1.000
    O232    O    0.88065   0.75435   0.58210   1.000
    O233    O    0.82160   0.71920   0.60120   1.000
    O234    O    0.20284   0.77844   0.92000   1.000
    O235    O    0.80037   0.85547   0.60530   1.000
    H236    H    0.53980   0.66499   0.50907   1.000
    H237    H    0.49725   0.59258   0.39226   1.000
    H238    H    0.68633   0.58336   0.58579   1.000
    H239    H    0.64525   0.65838   0.61808   1.000
    H240    H    0.73173   0.00494   0.83682   1.000
    H241    H    0.02833   0.66748   0.79518   1.000
    H242    H    0.55065   0.49343   0.34982   1.000
    H243    H    0.63207   0.48957   0.43458   1.000
    C244    C    0.92653   0.24643   0.16770   1.000
    C245    C    0.05035   0.25525   0.30950   1.000
    C246    C    0.11955   0.25885   0.38210   1.000
    C247    C    0.85822   0.24272   0.09510   1.000
    C248    C    0.16474   0.08964   0.53990   1.000
    C249    C    0.05000   0.08640   0.43040   1.000
    C250    C    0.20520   0.94780   0.20800   1.000
    C251    C    0.92460   0.24120   0.21940   1.000
    C252    C    0.98556   0.24566   0.28850   1.000
    C253    C    0.19627   0.00817   0.26370   1.000
    C254    C    0.10770   0.18420   0.58170   1.000
    N255    N    0.09576   0.10666   0.51890   1.000
    O256    O    0.85844   0.28284   0.08000   1.000
    O257    O    0.25017   0.19507   0.39470   1.000
    H258    H    0.15592   0.03073   0.49093   1.000
    H259    H    0.20032   0.10499   0.60774   1.000
    H260    H    0.99757   0.10054   0.41421   1.000
    H261    H    0.04030   0.02717   0.38192   1.000
    H262    H    0.16812   0.89490   0.16318   1.000
    H263    H    0.87230   0.23315   0.20482   1.000
    H264    H    0.14362   0.20083   0.65018   1.000
    H265    H    0.05500   0.19749   0.56542   1.000
    C266    C    0.50883   0.17653   0.18010   1.000
    C267    C    0.49085   0.30035   0.29510   1.000
    C268    C    0.48745   0.36955   0.36070   1.000
    C269    C    0.51312   0.10822   0.11550   1.000
    C270    C    0.37484   0.41474   0.57510   1.000
    C271    C    0.36960   0.30000   0.46360   1.000
    C272    C    0.74720   0.45520   0.75740   1.000
    C273    C    0.45520   0.17460   0.18340   1.000
    C274    C    0.44706   0.23556   0.23990   1.000
    C275    C    0.68257   0.44627   0.68810   1.000
    C276    C    0.27600   0.35770   0.42350   1.000
    N277    N    0.32686   0.34576   0.48910   1.000
    Cl278   Cl   0.85932   0.62440   0.85014   1.000
    Cl279   Cl   0.61627   0.37628   0.62729   1.000
    O280    O    0.50435   0.42225   0.37370   1.000
    O281    O    0.46920   0.36800   0.39760   1.000
    O282    O    0.52844   0.10844   0.07560   1.000
    O283    O    0.60547   0.50017   0.55510   1.000
    H284    H    0.41499   0.40592   0.62520   1.000
    H285    H    0.34258   0.45032   0.59533   1.000
    H286    H    0.33336   0.24757   0.39703   1.000
    H287    H    0.40838   0.29030   0.51313   1.000
    H288    H    0.75494   0.41812   0.77322   1.000
    H289    H    0.41748   0.12230   0.13915   1.000
    H290    H    0.24343   0.39362   0.44278   1.000
    H291    H    0.23957   0.30500   0.35751   1.000
    C292    C    0.99643   0.32873   0.81990   1.000
    C293    C    0.00525   0.19575   0.70490   1.000
    C294    C    0.00885   0.12675   0.63930   1.000
    C295    C    0.99272   0.39762   0.88450   1.000
    C296    C    0.83964   0.79974   0.42490   1.000
    C297    C    0.83640   0.90600   0.53640   1.000
    C298    C    0.69780   0.98980   0.24260   1.000
    C299    C    0.99120   0.27180   0.81660   1.000
    C300    C    0.99566   0.20716   0.76010   1.000
    C301    C    0.75817   0.99447   0.31190   1.000
    C302    C    0.93420   0.85250   0.57650   1.000
    N303    N    0.85666   0.83776   0.51090   1.000
    Cl304   Cl   0.77426   0.00918   0.14986   1.000
    Cl305   Cl   0.74899   0.98898   0.37271   1.000
    O306    O    0.04855   0.13065   0.62630   1.000
    O307    O    0.97040   0.07160   0.60240   1.000
    O308    O    0.03284   0.45284   0.92440   1.000
    O309    O    0.94507   0.05037   0.44490   1.000
    H310    H    0.78073   0.78980   0.37480   1.000
    H311    H    0.85499   0.74725   0.40467   1.000
    H312    H    0.85054   0.93633   0.60297   1.000
    H313    H    0.77717   0.89525   0.48687   1.000
    H314    H    0.64490   0.98173   0.22678   1.000
    H315    H    0.98315   0.27833   0.86085   1.000
    H316    H    0.95083   0.80065   0.55722   1.000
    H317    H    0.94749   0.88207   0.64249   1.000
    C318    C    0.32347   0.99117   0.81990   1.000
    C319    C    0.19965   0.00915   0.70490   1.000
    C320    C    0.13045   0.01255   0.63930   1.000
    C321    C    0.39178   0.98688   0.88450   1.000
    C322    C    0.08526   0.12516   0.42490   1.000
    C323    C    0.20000   0.13040   0.53640   1.000
    C324    C    0.04480   0.75280   0.24260   1.000
    C325    C    0.32540   0.04480   0.81660   1.000
    C326    C    0.26444   0.05294   0.76010   1.000
    C327    C    0.05373   0.81743   0.31190   1.000
    C328    C    0.14230   0.22400   0.57650   1.000
    N329    N    0.15424   0.17314   0.51090   1.000
    Cl330   Cl   0.87560   0.64068   0.14986   1.000
    Cl331   Cl   0.12372   0.88373   0.37271   1.000
    O332    O    0.07775   0.99565   0.62630   1.000
    O333    O    0.13200   0.03080   0.60240   1.000
    O334    O    0.39156   0.97156   0.92440   1.000
    O335    O    0.99983   0.89453   0.44490   1.000
    H336    H    0.09408   0.08501   0.37480   1.000
    H337    H    0.04968   0.15742   0.40467   1.000
    H338    H    0.25243   0.16664   0.60297   1.000
    H339    H    0.20970   0.09162   0.48687   1.000
    H340    H    0.08188   0.74506   0.22678   1.000
    H341    H    0.37770   0.08252   0.86085   1.000
    H342    H    0.10638   0.25657   0.55722   1.000
    H343    H    0.19500   0.26043   0.64249   1.000
    C344    C    0.17127   0.50357   0.18010   1.000
    C345    C    0.30425   0.49475   0.29510   1.000
    C346    C    0.37325   0.49115   0.36070   1.000
    C347    C    0.10238   0.50728   0.11550   1.000
    C348    C    0.70026   0.66036   0.57510   1.000
    C349    C    0.59400   0.66360   0.46360   1.000
    C350    C    0.51020   0.80220   0.75740   1.000
    C351    C    0.22820   0.50880   0.18340   1.000
    C352    C    0.29284   0.50434   0.23990   1.000
    C353    C    0.50553   0.74183   0.68810   1.000
    C354    C    0.64750   0.56580   0.42350   1.000
    N355    N    0.66224   0.64334   0.48910   1.000
    Cl356   Cl   0.49082   0.72574   0.85014   1.000
    Cl357   Cl   0.51102   0.75101   0.62729   1.000
    O358    O    0.36935   0.45145   0.37370   1.000
    O359    O    0.42840   0.52960   0.39760   1.000
    O360    O    0.04716   0.46716   0.07560   1.000
    O361    O    0.44963   0.55493   0.55510   1.000
    H362    H    0.71020   0.71927   0.62520   1.000
    H363    H    0.75275   0.64501   0.59533   1.000
    H364    H    0.56367   0.64946   0.39703   1.000
    H365    H    0.60475   0.72283   0.51313   1.000
    H366    H    0.51827   0.85510   0.77322   1.000
    H367    H    0.22167   0.51685   0.13915   1.000
    H368    H    0.69935   0.54917   0.44278   1.000
    H369    H    0.61793   0.55251   0.35751   1.000
    C370    C    0.25357   0.57347   0.83230   1.000
    C371    C    0.24475   0.44965   0.69050   1.000
    C372    C    0.24115   0.38045   0.61790   1.000
    C373    C    0.25728   0.64178   0.90490   1.000
    C374    C    0.41036   0.33526   0.46010   1.000
    C375    C    0.41360   0.45000   0.56960   1.000
    C376    C    0.55220   0.29480   0.79200   1.000
    C377    C    0.25880   0.57540   0.78060   1.000
    C378    C    0.25434   0.51444   0.71150   1.000
    C379    C    0.49183   0.30373   0.73630   1.000
    C380    C    0.31580   0.39230   0.41830   1.000
    N381    N    0.39334   0.40424   0.48110   1.000
    Cl382   Cl   0.47574   0.12560   0.73492   1.000
    Cl383   Cl   0.50101   0.37372   0.73999   1.000
    O384    O    0.20145   0.32775   0.58210   1.000
    O385    O    0.27960   0.38200   0.60120   1.000
    O386    O    0.21716   0.64156   0.92000   1.000
    O387    O    0.30493   0.24983   0.60530   1.000
    H388    H    0.29917   0.35638   0.34982   1.000
    H389    H    0.30251   0.44500   0.43458   1.000
    C390    C    0.74117   0.42127   0.16770   1.000
    C391    C    0.75915   0.55425   0.30950   1.000
    C392    C    0.76255   0.62325   0.38210   1.000
    C393    C    0.73688   0.35238   0.09510   1.000
    C394    C    0.87516   0.95026   0.53990   1.000
    C395    C    0.88040   0.84400   0.43040   1.000
    C396    C    0.50280   0.76020   0.20800   1.000
    C397    C    0.79480   0.47820   0.21940   1.000
    C398    C    0.80294   0.54284   0.28850   1.000
    C399    C    0.56743   0.75553   0.26370   1.000
    C400    C    0.97400   0.89750   0.58170   1.000
    N401    N    0.92314   0.91224   0.51890   1.000
    Cl402   Cl   0.39068   0.74082   0.26508   1.000
    Cl403   Cl   0.63373   0.76102   0.26001   1.000
    O404    O    0.74565   0.61935   0.41790   1.000
    O405    O    0.78080   0.67840   0.39880   1.000
    O406    O    0.72156   0.29716   0.08000   1.000
    O407    O    0.64453   0.69963   0.39470   1.000
    H408    H    0.83501   0.96020   0.49093   1.000
    H409    H    0.90742   0.00275   0.60774   1.000
    H410    H    0.91664   0.81367   0.41421   1.000
    H411    H    0.84162   0.85475   0.38192   1.000
    H412    H    0.49506   0.76827   0.16318   1.000
    H413    H    0.83252   0.47167   0.20482   1.000
    H414    H    0.00657   0.94935   0.65018   1.000
    H415    H    0.01043   0.86793   0.56542   1.000
loop_
    _geom_bond_atom_site_label_1
    _geom_bond_atom_site_label_2
    _geom_bond_distance
    _geom_bond_site_symmetry_2
    _ccdc_geom_bond_type
    H44    C30       1.13993  1_554   S
    H210   C193      1.13993  1_554   S
    N63    C57       1.48586      .   S
    N63    C62       1.49295      .   S
    N63    C56       1.49112  1_554   S
    N148   C142      1.48585      .   S
    N148   C147      1.49295      .   S
    N148   C141      1.49112  1_554   S
    H132   C112      1.13998  1_554   S
    H102   C83       1.13998  1_554   S
    N11    C4        1.49113      .   S
    N11    C10       1.49295      .   S
    N11    C5        1.48585  1_554   S
    N174   C167      1.49112      .   S
    N174   C173      1.49295      .   S
    N174   C168      1.48585  1_554   S
    C57    C167      1.54041      .   S
    C57    H72       1.14001  1_565   S
    C57    H73       1.13998  1_554   S
    C142   C4        1.54041      .   S
    C142   H157      1.14002      .   S
    C142   H158      1.13998  1_554   S
    C4     H19       1.14001      .   S
    C4     H18       1.13993  1_554   S
    C167   H182      1.14002      .   S
    C167   H181      1.13993  1_554   S
    O124   C393      1.26226      .   S
    O95    C247      1.26226      .   S
    H76    C62       1.14008      .   S
    H161   C147      1.13999      .   S
    H188   C173      1.13993      .   S
    H25    C10       1.14015      .   S
    C31    C111      1.54041      .   S
    C31    H46       1.14002      .   S
    C31    H47       1.13998      .   S
    C31    N37       1.48585  1_554   S
    C194   C82       1.54041      .   S
    C194   H212      1.14002      .   S
    C194   H213      1.13998      .   S
    C194   N98       1.48585  1_554   S
    C111   H130      1.14002      .   S
    C111   H125      1.14010      .   S
    C111   N118      1.49112  1_554   S
    C82    H100      1.14002      .   S
    C82    H99       1.13997      .   S
    C82    N89       1.49112  1_554   S
    O360   C347      1.25763      .   S
    O282   C269      1.25763      .   S
    C62    C173      1.54285      .   S
    C62    H77       1.13997      .   S
    C147   C10       1.54285      .   S
    C147   H162      1.13993      .   S
    O406   C393      1.25763      .   S
    O256   C247      1.25763      .   S
    C173   H187      1.13997      .   S
    C10    H24       1.13998      .   S
    O206   C191      1.24189  1_455   S
    O40    C28       1.24188      .   S
    C393   C390      1.49929      .   S
    C247   C244      1.49929      .   S
    O207   C191      1.26163      .   S
    O41    C28       1.26163  1_545   S
    O67    C54       1.26163      .   S
    O152   C139      1.26162      .   S
    O43    C269      1.26226      .   S
    O209   C347      1.26226      .   S
    C347   C344      1.49930      .   S
    C269   C266      1.49930      .   S
    C191   C190      1.50956      .   S
    C28    C27       1.50956      .   S
    O66    C54       1.24188      .   S
    O151   C139      1.24189      .   S
    Cl120  C116      1.73555      .   S
    Cl91   C87       1.73555  1_455   S
    H289   C273      1.13991      .   S
    H367   C351      1.13991      .   S
    C54    C53       1.50956      .   S
    C139   C138      1.50956      .   S
    Cl330  C197      1.75655      .   S
    Cl304  C34       1.75656      .   S
    H412   C396      1.13987      .   S
    H262   C250      1.14005      .   S
    C390   C116      1.39297      .   S
    C390   C397      1.39042      .   S
    C244   C87       1.39297      .   S
    C244   C251      1.39043      .   S
    C344   C351      1.39042      .   S
    C344   C96       1.39297      .   S
    C266   C273      1.39043      .   S
    C266   C35       1.39296      .   S
    C351   C352      1.37888      .   S
    C273   C274      1.37888      .   S
    C116   C113      1.37414      .   S
    C87    C84       1.37414  1_655   S
    C190   C197      1.37655      .   S
    C190   C324      1.39449  1_655   S
    C27    C34       1.37655  1_565   S
    C27    C298      1.39450      .   S
    H263   C251      1.13991      .   S
    H413   C397      1.13991      .   S
    C138   C396      1.39450      .   S
    C138   C145      1.37655      .   S
    C53    C250      1.39450      .   S
    C53    C60       1.37654  1_565   S
    C396   C399      1.37414      .   S
    C250   C253      1.37414  1_565   S
    C197   C196      1.37888      .   S
    C34    C33       1.37888      .   S
    C251   C252      1.37888      .   S
    C397   C398      1.37888      .   S
    H314   C298      1.14000      .   S
    H340   C324      1.14006      .   S
    Cl38   C274      1.75656      .   S
    Cl204  C352      1.75656      .   S
    C96    Cl205     1.73555      .   S
    C96    C195      1.37414      .   S
    C35    Cl39      1.73555      .   S
    C35    C32       1.37414      .   S
    C274   C267      1.37654      .   S
    C352   C345      1.37655      .   S
    C324   C327      1.37414      .   S
    C298   C301      1.37414      .   S
    C113   H133      1.14006      .   S
    C113   C391      1.39449      .   S
    C84    H103      1.14000      .   S
    C84    C245      1.39450      .   S
    Cl403  C399      1.73555      .   S
    Cl127  C253      1.73555  1_565   S
    C145   Cl402     1.75656      .   S
    C145   C144      1.37888      .   S
    C60    Cl126     1.75656      .   S
    C60    C59       1.37888      .   S
    C399   C137      1.39297      .   S
    C253   C52       1.39296      .   S
    C33    H49       1.13991      .   S
    C33    C26       1.39043      .   S
    C196   H215      1.13991      .   S
    C196   C189      1.39042  1_655   S
    C252   C245      1.37655  1_655   S
    C252   Cl90      1.75656      .   S
    C398   C391      1.37655      .   S
    C398   Cl119     1.75655      .   S
    C32    C267      1.39450      .   S
    C32    H48       1.14005      .   S
    C195   C345      1.39450      .   S
    C195   H214      1.13987      .   S
    C267   C268      1.50956      .   S
    C345   C346      1.50956      .   S
    C245   C246      1.50956      .   S
    C391   C392      1.50956      .   S
    C301   C26       1.39297  1_565   S
    C301   Cl305     1.73555      .   S
    C327   C189      1.39297      .   S
    C327   Cl331     1.73555      .   S
    C59    C52       1.39043      .   S
    C59    H75       1.13991      .   S
    C144   C137      1.39042      .   S
    C144   H160      1.13991      .   S
    C137   C140      1.49930      .   S
    C52    C55       1.49930      .   S
    C26    C29       1.49929      .   S
    C189   C192      1.49929      .   S
    H242   C228      1.13998      .   S
    H388   C380      1.13997      .   S
    H291   C276      1.13997      .   S
    H369   C354      1.13993      .   S
    C346   O358      1.24189      .   S
    C346   O359      1.26162      .   S
    C268   O280      1.24188      .   S
    C268   O281      1.26163      .   S
    H310   C296      1.13997      .   S
    H336   C322      1.14010      .   S
    H261   C249      1.13998      .   S
    H411   C395      1.13998      .   S
    C392   O405      1.26163      .   S
    C392   O404      1.24189      .   S
    C246   O129      1.26163      .   S
    C246   O128      1.24188      .   S
    C55    O257      1.26226      .   S
    C55    O68       1.25763      .   S
    C140   O407      1.26226      .   S
    C140   O153      1.25763      .   S
    H237   C222      1.14001      .   S
    H199   C374      1.14002      .   S
    H286   C271      1.14001      .   S
    H364   C349      1.14002      .   S
    H337   C322      1.14002      .   S
    H311   C296      1.14002      .   S
    C192   O208      1.25763      .   S
    C192   O335      1.26226  1_455   S
    C29    O42       1.25763  1_545   S
    C29    O309      1.26226      .   S
    H260   C249      1.14002  1_655   S
    H410   C395      1.14002      .   S
    C228   C354      1.54285      .   S
    C228   H243      1.14015      .   S
    C228   N229      1.49295      .   S
    C380   C276      1.54285      .   S
    C380   H389      1.13993      .   S
    C380   N381      1.49295      .   S
    C354   H368      1.13999      .   S
    C354   N355      1.49295      .   S
    C276   H290      1.14008      .   S
    C276   N277      1.49295      .   S
    C296   C395      1.54041      .   S
    C296   N303      1.49112      .   S
    C322   C249      1.54041      .   S
    C322   N329      1.49112      .   S
    C249   N255      1.48585      .   S
    C395   N401      1.48585      .   S
    C222   C349      1.54041      .   S
    C222   N229      1.49113      .   S
    C222   H236      1.13993      .   S
    C374   C271      1.54041      .   S
    C374   N381      1.49112      .   S
    C374   H198      1.13993      .   S
    C271   N277      1.48586      .   S
    C271   H287      1.13998      .   S
    C349   N355      1.48585      .   S
    C349   H365      1.13998      .   S
    N229   C223      1.48585      .   S
    N381   C375      1.48585      .   S
    H313   C297      1.13998      .   S
    H339   C323      1.13998      .   S
    N355   C348      1.49112      .   S
    N277   C270      1.49112      .   S
    H408   C394      1.13993      .   S
    H258   C248      1.13993      .   S
    N303   C297      1.48585      .   S
    N303   C302      1.49295      .   S
    N329   C323      1.48586      .   S
    N329   C328      1.49295      .   S
    N255   C248      1.49112      .   S
    N255   C254      1.49295      .   S
    N401   C394      1.49113      .   S
    N401   C400      1.49295      .   S
    C323   C248      1.54041      .   S
    C323   H338      1.14001      .   S
    C297   C394      1.54041      .   S
    C297   H312      1.14002      .   S
    C248   H259      1.14002      .   S
    C394   H409      1.14001  1_565   S
    O283   C3        1.26226      .   S
    O361   C166      1.26226      .   S
    H316   C302      1.13999      .   S
    H342   C328      1.14008      .   S
    H265   C254      1.13993      .   S
    H415   C400      1.14015  1_455   S
    C375   C270      1.54041      .   S
    C375   H200      1.14002      .   S
    C375   H201      1.13998      .   S
    C223   C348      1.54041      .   S
    C223   H238      1.14002      .   S
    C223   H239      1.13998      .   S
    C270   H285      1.14002      .   S
    C270   H284      1.14010      .   S
    C348   H363      1.14002      .   S
    C348   H362      1.13997      .   S
    O123   C110      1.25763      .   S
    O94    C81       1.25763      .   S
    C302   C400      1.54285      .   S
    C302   H317      1.13993      .   S
    C328   C254      1.54285      .   S
    C328   H343      1.13997      .   S
    O16    C3        1.25763      .   S
    O179   C166      1.25763      .   S
    C400   H414      1.13998  1_655   S
    C254   H264      1.13997      .   S
    O232   C220      1.24189      .   S
    O384   C372      1.24188      .   S
    C3     C0        1.49929      .   S
    C166   C163      1.49929      .   S
    O385   C372      1.26163      .   S
    O233   C220      1.26163      .   S
    O307   C294      1.26162  1_655   S
    O333   C320      1.26163      .   S
    O387   C110      1.26226      .   S
    O235   C81       1.26226      .   S
    C81    C78       1.49930      .   S
    C110   C107      1.49930      .   S
    C372   C371      1.50956      .   S
    C220   C219      1.50956      .   S
    O332   C320      1.24188  1_565   S
    O306   C294      1.24189      .   S
    Cl357  C353      1.73555      .   S
    Cl279  C275      1.73555      .   S
    H104   C85       1.13991      .   S
    H134   C114      1.13991      .   S
    C294   C293      1.50956      .   S
    C320   C319      1.50956      .   S
    Cl64   C226      1.75655      .   S
    Cl149  C378      1.75656      .   S
    H22    C6        1.13987      .   S
    H185   C169      1.14005      .   S
    C0     C275      1.39297      .   S
    C0     C7        1.39042      .   S
    C163   C353      1.39297      .   S
    C163   C170      1.39043      .   S
    C78    C85       1.39042      .   S
    C78    C227      1.39297      .   S
    C107   C114      1.39043      .   S
    C107   C379      1.39296      .   S
    C85    C86       1.37888  1_565   S
    C114   C115      1.37888      .   S
    C353   C350      1.37414      .   S
    C275   C272      1.37414      .   S
    C219   C226      1.37655      .   S
    C219   C58       1.39449  1_655   S
    C371   C378      1.37655      .   S
    C371   C143      1.39450      .   S
    H186   C170      1.13991      .   S
    H23    C7        1.13991      .   S
    C319   C169      1.39450  1_545   S
    C319   C326      1.37654      .   S
    C293   C6        1.39450      .   S
    C293   C300      1.37655  1_455   S
    C6     C9        1.37414      .   S
    C169   C172      1.37414      .   S
    C226   C225      1.37888  1_655   S
    C378   C377      1.37888      .   S
    C170   C171      1.37888      .   S
    C7     C8        1.37888      .   S
    H74    C58       1.14006  1_655   S
    H159   C143      1.14000      .   S
    Cl230  C86       1.75656      .   S
    Cl382  C115      1.75656      .   S
    C227   Cl231     1.73555      .   S
    C227   C224      1.37414      .   S
    C379   Cl383     1.73555      .   S
    C379   C376      1.37414      .   S
    C86    C79       1.37655      .   S
    C115   C108      1.37654      .   S
    C143   C146      1.37414      .   S
    C58    C61       1.37414      .   S
    C350   H366      1.14000      .   S
    C350   C164      1.39450      .   S
    C272   H288      1.14006      .   S
    C272   C1        1.39449      .   S
    Cl176  C172      1.73555      .   S
    Cl13   C9        1.73555      .   S
    C326   Cl175     1.75656      .   S
    C326   C325      1.37888      .   S
    C300   Cl12      1.75656      .   S
    C300   C299      1.37888      .   S
    C172   C318      1.39296      .   S
    C9     C292      1.39297  1_455   S
    C225   H241      1.13991      .   S
    C225   C218      1.39042      .   S
    C377   H203      1.13991      .   S
    C377   C370      1.39043      .   S
    C8     C1        1.37655      .   S
    C8     Cl278     1.75655      .   S
    C171   C164      1.37655      .   S
    C171   Cl356     1.75656      .   S
    C376   C108      1.39450      .   S
    C376   H202      1.14005      .   S
    C224   C79       1.39450  1_565   S
    C224   H240      1.13987  1_565   S
    C79    C80       1.50956      .   S
    C108   C109      1.50956      .   S
    C164   C165      1.50956      .   S
    C1     C2        1.50956      .   S
    C61    C218      1.39297      .   S
    C61    Cl65      1.73555      .   S
    C146   C370      1.39297      .   S
    C146   Cl150     1.73555      .   S
    C299   C292      1.39042      .   S
    C299   H315      1.13991      .   S
    C325   C318      1.39043  1_545   S
    C325   H341      1.13991      .   S
    C292   C295      1.49930      .   S
    C318   C321      1.49930      .   S
    C370   C373      1.49929      .   S
    C218   C221      1.49929      .   S
    H50    C36       1.13997      .   S
    H216   C97       1.13998      .   S
    H106   C88       1.13993      .   S
    H136   C117      1.13997  1_565   S
    C109   O121      1.24188      .   S
    C109   O122      1.26163      .   S
    C80    O92       1.24189      .   S
    C80    O93       1.26162      .   S
    H155   C141      1.13997      .   S
    H70    C56       1.14010      .   S
    H21    C5        1.13998      .   S
    H184   C168      1.13998      .   S
    C165   O178      1.26163      .   S
    C165   O177      1.24188      .   S
    C2     O15       1.26163      .   S
    C2     O14       1.24189      .   S
    C321   O180      1.26226  1_565   S
    C321   O334      1.25763      .   S
    C295   O17       1.26226      .   S
    C295   O308      1.25763  1_655   S
    H211   C193      1.14001      .   S
    H45    C30       1.14002      .   S
    H101   C83       1.14002      .   S
    H131   C112      1.14001      .   S
    H156   C141      1.14002  1_655   S
    H71    C56       1.14002      .   S
    C221   O234      1.25763      .   S
    C221   O69       1.26226      .   S
    C373   O386      1.25763      .   S
    C373   O154      1.26226      .   S
    H20    C5        1.14002      .   S
    H183   C168      1.14002      .   S
    C36    C117      1.54285      .   S
    C36    H51       1.13993      .   S
    C36    N37       1.49295      .   S
    C97    C88       1.54285      .   S
    C97    H217      1.14015      .   S
    C97    N98       1.49295      .   S
    C88    H105      1.13999      .   S
    C88    N89       1.49295      .   S
    C117   H135      1.14008  1_545   S
    C117   N118      1.49295      .   S
    C56    C168      1.54041      .   S
    C141   C5        1.54041      .   S
    C193   C83       1.54041      .   S
    C193   N98       1.49113      .   S
    C30    C112      1.54041      .   S
    C30    N37       1.49112      .   S
    C112   N118      1.48586      .   S
    C83    N89       1.48585      .   S
