# CIF file generated by openbabel 2.4.90, see http://openbabel.sf.net
data_I
_chemical_name_common ''
_cell_length_a 24.7318
_cell_length_b 24.7318
_cell_length_c 24.7318
_cell_angle_alpha 127.653
_cell_angle_beta 127.653
_cell_angle_gamma 77.1881
_space_group_name_H-M_alt 'P 1'
_space_group_name_Hall 'P 1'
loop_
    _symmetry_equiv_pos_as_xyz
    x,y,z
loop_
    _atom_site_label
    _atom_site_type_symbol
    _atom_site_fract_x
    _atom_site_fract_y
    _atom_site_fract_z
    _atom_site_occupancy
    Zr0     Zr   0.02843   0.55264   0.00373   1.000
    Zr1     Zr   0.54891   0.02470   0.99627   1.000
    Zr2     Zr   0.30264   0.79891   0.02421   1.000
    Zr3     Zr   0.77470   0.27843   0.97579   1.000
    Zr4     Zr   0.70109   0.19736   0.97579   1.000
    Zr5     Zr   0.22157   0.72530   0.02421   1.000
    Zr6     Zr   0.47530   0.95109   0.00373   1.000
    Zr7     Zr   0.94736   0.47157   0.99627   1.000
    Zr8     Zr   0.72157   0.69736   0.49627   1.000
    Zr9     Zr   0.20109   0.22530   0.50373   1.000
    Zr10    Zr   0.44736   0.45109   0.47579   1.000
    Zr11    Zr   0.97530   0.97157   0.52421   1.000
    Zr12    Zr   0.04891   0.05264   0.52421   1.000
    Zr13    Zr   0.52843   0.52470   0.47579   1.000
    Zr14    Zr   0.27470   0.29891   0.49627   1.000
    Zr15    Zr   0.80264   0.77843   0.50373   1.000
    O16     O    0.98789   0.51210   0.00000   1.000
    O17     O    0.51211   0.98789   0.00000   1.000
    O18     O    0.26211   0.76210   0.02421   1.000
    O19     O    0.73790   0.23789   0.97579   1.000
    O20     O    0.76211   0.73789   0.50000   1.000
    O21     O    0.23790   0.26211   0.50000   1.000
    O22     O    0.48789   0.48789   0.47579   1.000
    O23     O    0.01210   0.01210   0.52421   1.000
    N24     N    0.51222   0.75066   0.26212   1.000
    O25     O    0.39190   0.73675   0.16271   1.000
    O26     O    0.63248   0.76565   0.36309   1.000
    O27     O    0.59763   0.72458   0.35380   1.000
    O28     O    0.42693   0.77469   0.16869   1.000
    N29     N    0.62500   0.11005   0.98505   1.000
    O30     O    0.59867   0.08041   0.98887   1.000
    O31     O    0.65133   0.14020   0.98175   1.000
    N32     N    0.50010   0.23854   0.23788   1.000
    O33     O    0.50824   0.35601   0.33131   1.000
    O34     O    0.51939   0.15255   0.13691   1.000
    O35     O    0.49383   0.12077   0.14620   1.000
    O36     O    0.47919   0.32404   0.33729   1.000
    N37     N    0.24990   0.01146   0.26212   1.000
    O38     O    0.27081   0.92596   0.16271   1.000
    O39     O    0.24176   0.89399   0.16869   1.000
    O40     O    0.25617   0.12923   0.35380   1.000
    O41     O    0.23061   0.09745   0.36309   1.000
    N42     N    0.73778   0.49990   0.73844   1.000
    O43     O    0.82307   0.49176   0.84776   1.000
    O44     O    0.61752   0.48061   0.63317   1.000
    O45     O    0.65237   0.50617   0.62694   1.000
    O46     O    0.85810   0.52081   0.84485   1.000
    N47     N    0.76146   0.99934   0.26156   1.000
    O48     O    0.64399   0.97531   0.15224   1.000
    O49     O    0.67596   0.01325   0.15515   1.000
    O50     O    0.84745   0.98435   0.36683   1.000
    O51     O    0.87923   0.02542   0.37306   1.000
    N52     N    0.88995   0.87500   0.51495   1.000
    O53     O    0.91959   0.90845   0.51825   1.000
    O54     O    0.85980   0.84155   0.51113   1.000
    N55     N    0.01222   0.75010   0.76156   1.000
    O56     O    0.13248   0.76939   0.86683   1.000
    O57     O    0.92693   0.75824   0.65224   1.000
    O58     O    0.89190   0.72919   0.65515   1.000
    O59     O    0.09763   0.74383   0.87306   1.000
    N60     N    0.98854   0.25066   0.23844   1.000
    O61     O    0.07404   0.23675   0.34485   1.000
    O62     O    0.10601   0.27469   0.34776   1.000
    O63     O    0.87077   0.22458   0.12694   1.000
    O64     O    0.90255   0.26565   0.13317   1.000
    N65     N    0.26146   0.99990   0.76212   1.000
    O66     O    0.37923   0.00617   0.85380   1.000
    O67     O    0.14399   0.99176   0.66869   1.000
    O68     O    0.17596   0.02081   0.66271   1.000
    O69     O    0.34745   0.98061   0.86309   1.000
    N70     N    0.74990   0.48778   0.23844   1.000
    O71     O    0.74176   0.57307   0.34776   1.000
    O72     O    0.77081   0.60810   0.34485   1.000
    O73     O    0.73061   0.36752   0.13317   1.000
    O74     O    0.75617   0.40237   0.12694   1.000
    N75     N    0.24934   0.51146   0.76156   1.000
    O76     O    0.22531   0.39399   0.65224   1.000
    O77     O    0.23435   0.59745   0.86683   1.000
    O78     O    0.26325   0.42596   0.65515   1.000
    O79     O    0.27542   0.62923   0.87306   1.000
    N80     N    0.36005   0.37500   0.48505   1.000
    O81     O    0.33041   0.34867   0.48887   1.000
    O82     O    0.39020   0.40133   0.48175   1.000
    N83     N    0.86005   0.37500   0.98505   1.000
    O84     O    0.83041   0.34155   0.98175   1.000
    O85     O    0.89020   0.40845   0.98887   1.000
    N86     N    0.38995   0.87500   0.01495   1.000
    O87     O    0.35980   0.84867   0.01825   1.000
    O88     O    0.41959   0.90133   0.01113   1.000
    N89     N    0.12500   0.13995   0.51495   1.000
    O90     O    0.09867   0.10980   0.51825   1.000
    O91     O    0.15133   0.16959   0.51113   1.000
    N92     N    0.12500   0.63995   0.01495   1.000
    O93     O    0.09155   0.60980   0.01113   1.000
    O94     O    0.15845   0.66959   0.01825   1.000
    N95     N    0.23778   0.49934   0.23788   1.000
    O96     O    0.11752   0.48435   0.13691   1.000
    O97     O    0.15237   0.52542   0.14620   1.000
    O98     O    0.35810   0.51325   0.33729   1.000
    O99     O    0.32307   0.47531   0.33131   1.000
    N100    N    0.00066   0.26222   0.76212   1.000
    O101    O    0.01565   0.38248   0.86309   1.000
    O102    O    0.02469   0.17693   0.66869   1.000
    O103    O    0.98675   0.14190   0.66271   1.000
    O104    O    0.97458   0.34763   0.85380   1.000
    N105    N    0.50066   0.73854   0.73844   1.000
    O106    O    0.51565   0.65255   0.63317   1.000
    O107    O    0.52469   0.85601   0.84776   1.000
    O108    O    0.48675   0.82404   0.84485   1.000
    O109    O    0.47458   0.62077   0.62694   1.000
    N110    N    0.74934   0.98778   0.73788   1.000
    O111    O    0.73435   0.86752   0.63691   1.000
    O112    O    0.76325   0.10810   0.83729   1.000
    O113    O    0.72531   0.07307   0.83131   1.000
    O114    O    0.77542   0.90237   0.64620   1.000
    N115    N    0.48854   0.25010   0.73788   1.000
    O116    O    0.40255   0.26939   0.63691   1.000
    O117    O    0.37077   0.24383   0.64620   1.000
    O118    O    0.60601   0.25824   0.83131   1.000
    O119    O    0.57404   0.22919   0.83729   1.000
    N120    N    0.62500   0.61005   0.48505   1.000
    O121    O    0.59155   0.58041   0.48175   1.000
    O122    O    0.65845   0.64020   0.48887   1.000
    N123    N    0.00010   0.76222   0.26156   1.000
    O124    O    0.01939   0.88248   0.36683   1.000
    O125    O    0.97919   0.64190   0.15515   1.000
    O126    O    0.99383   0.84763   0.37306   1.000
    O127    O    0.00824   0.67693   0.15224   1.000
loop_
    _geom_bond_atom_site_label_1
    _geom_bond_atom_site_label_2
    _geom_bond_distance
    _geom_bond_site_symmetry_2
    _ccdc_geom_bond_type
    Zr0    O16       1.49609  1_455   S
    Zr7    O16       1.49609  1_556   S
    Zr1    O17       1.49609  1_546   S
    Zr6    O17       1.49609      .   S
    Zr2    O18       1.49609      .   S
    Zr5    O18       1.49609      .   S
    Zr3    O19       1.49609      .   S
    Zr4    O19       1.49609      .   S
    Zr8    O20       1.49609      .   S
    Zr15   O20       1.49609      .   S
    Zr9    O21       1.49609      .   S
    Zr14   O21       1.49609      .   S
    Zr10   O22       1.49609      .   S
    Zr13   O22       1.49609      .   S
    Zr11   O23       1.49609  1_665   S
    Zr12   O23       1.49609      .   S
    N24    O25       2.34519      .   S
    Zr5    O25       3.35761      .   S
    N24    O26       2.34593      .   S
    Zr15   O26       3.35730      .   S
    N24    O27       2.31312      .   S
    Zr8    O27       3.32427      .   S
    N24    O28       2.30419      .   S
    Zr2    O28       3.30969      .   S
    N29    O30       1.15826      .   S
    Zr1    O30       2.18678      .   S
    N29    O31       1.15828      .   S
    Zr4    O31       2.18680      .   S
    N32    O33       2.30419      .   S
    Zr13   O33       3.30968      .   S
    N32    O34       2.34594      .   S
    Zr1    O34       3.35730  1_556   S
    N32    O35       2.31312      .   S
    Zr6    O35       3.32427  1_565   S
    N32    O36       2.34519      .   S
    Zr10   O36       3.35762      .   S
    N37    O38       2.34519  1_545   S
    Zr2    O38       3.35762      .   S
    N37    O39       2.30419  1_545   S
    Zr5    O39       3.30968      .   S
    N37    O40       2.31312      .   S
    Zr14   O40       3.32427      .   S
    N37    O41       2.34594      .   S
    Zr9    O41       3.35730      .   S
    N42    O43       2.30419      .   S
    Zr7    O43       3.30969      .   S
    N42    O44       2.34593      .   S
    Zr10   O44       3.35730      .   S
    N42    O45       2.31313      .   S
    Zr13   O45       3.32428      .   S
    N42    O46       2.34519      .   S
    Zr0    O46       3.35761  1_454   S
    N47    O48       2.30418      .   S
    Zr6    O48       3.30968      .   S
    N47    O49       2.34519  1_565   S
    Zr1    O49       3.35761  1_556   S
    N47    O50       2.34594      .   S
    Zr11   O50       3.35731      .   S
    N47    O51       2.31312  1_565   S
    Zr12   O51       3.32427  1_455   S
    N52    O53       1.15826      .   S
    Zr11   O53       2.18678      .   S
    N52    O54       1.15827      .   S
    Zr15   O54       2.18680      .   S
    N55    O56       2.34593      .   S
    Zr2    O56       3.35730  1_554   S
    N55    O57       2.30419  1_455   S
    Zr15   O57       3.30969      .   S
    N55    O58       2.34519  1_455   S
    Zr8    O58       3.35761      .   S
    N55    O59       2.31313      .   S
    Zr5    O59       3.32428  1_554   S
    N60    O61       2.34519  1_655   S
    Zr9    O61       3.35761      .   S
    N60    O62       2.30418  1_655   S
    Zr14   O62       3.30968      .   S
    N60    O63       2.31312      .   S
    Zr4    O63       3.32427  1_556   S
    N60    O64       2.34594      .   S
    Zr3    O64       3.35731  1_556   S
    N65    O66       2.31312  1_565   S
    Zr1    O66       3.32427      .   S
    N65    O67       2.30419      .   S
    Zr11   O67       3.30968  1_655   S
    N65    O68       2.34519  1_565   S
    Zr12   O68       3.35762      .   S
    N65    O69       2.34594      .   S
    Zr6    O69       3.35730  1_554   S
    N70    O71       2.30419      .   S
    Zr8    O71       3.30969      .   S
    N70    O72       2.34519      .   S
    Zr15   O72       3.35761      .   S
    N70    O73       2.34593      .   S
    Zr4    O73       3.35730  1_556   S
    N70    O74       2.31313      .   S
    Zr3    O74       3.32428  1_556   S
    N75    O76       2.30418      .   S
    Zr9    O76       3.30968      .   S
    N75    O77       2.34594      .   S
    Zr5    O77       3.35731  1_554   S
    N75    O78       2.34519      .   S
    Zr14   O78       3.35761      .   S
    N75    O79       2.31312      .   S
    Zr2    O79       3.32427  1_554   S
    N80    O81       1.15826      .   S
    Zr14   O81       2.18678      .   S
    N80    O82       1.15828      .   S
    Zr10   O82       2.18680      .   S
    N83    O84       1.15826      .   S
    Zr3    O84       2.18678      .   S
    N83    O85       1.15827      .   S
    Zr7    O85       2.18680      .   S
    N86    O87       1.15828      .   S
    Zr2    O87       2.18680      .   S
    N86    O88       1.15826      .   S
    Zr6    O88       2.18678      .   S
    N89    O90       1.15828      .   S
    Zr12   O90       2.18680      .   S
    N89    O91       1.15826      .   S
    Zr9    O91       2.18678      .   S
    N92    O93       1.15827      .   S
    Zr0    O93       2.18680      .   S
    N92    O94       1.15826      .   S
    Zr5    O94       2.18678      .   S
    N95    O96       2.34593      .   S
    Zr7    O96       3.35730  1_656   S
    N95    O97       2.31312      .   S
    Zr0    O97       3.32427      .   S
    N95    O98       2.34519      .   S
    Zr13   O98       3.35761      .   S
    N95    O99       2.30419      .   S
    Zr10   O99       3.30969      .   S
    N100   O101      2.34593      .   S
    Zr0    O101      3.35730  1_554   S
    N100   O102      2.30419      .   S
    Zr12   O102      3.30969      .   S
    N100   O103      2.34519  1_455   S
    Zr11   O103      3.35761  1_565   S
    N100   O104      2.31312  1_455   S
    Zr7    O104      3.32427      .   S
    N105   O106      2.34594      .   S
    Zr13   O106      3.35731      .   S
    N105   O107      2.30418      .   S
    Zr1    O107      3.30968  1_545   S
    N105   O108      2.34519      .   S
    Zr6    O108      3.35761  1_554   S
    N105   O109      2.31312      .   S
    Zr10   O109      3.32427      .   S
    N110   O111      2.34593      .   S
    Zr8    O111      3.35730      .   S
    N110   O112      2.34519  1_565   S
    Zr3    O112      3.35761      .   S
    N110   O113      2.30419  1_565   S
    Zr4    O113      3.30969      .   S
    N110   O114      2.31312      .   S
    Zr15   O114      3.32427      .   S
    N115   O116      2.34594      .   S
    Zr14   O116      3.35730      .   S
    N115   O117      2.31312      .   S
    Zr9    O117      3.32427      .   S
    N115   O118      2.30419      .   S
    Zr3    O118      3.30968      .   S
    N115   O119      2.34519      .   S
    Zr4    O119      3.35762      .   S
    N120   O121      1.15826      .   S
    Zr13   O121      2.18678      .   S
    N120   O122      1.15827      .   S
    Zr8    O122      2.18680      .   S
    N123   O124      2.34593      .   S
    Zr12   O124      3.35730  1_545   S
    N123   O125      2.34519  1_455   S
    Zr7    O125      3.35761  1_556   S
    N123   O126      2.31313  1_455   S
    Zr11   O126      3.32428      .   S
    N123   O127      2.30419      .   S
    Zr0    O127      3.30969      .   S
