# CIF file generated by openbabel 2.4.90, see http://openbabel.sf.net
data_I
_chemical_name_common ''
_cell_length_a 24.7318
_cell_length_b 24.7318
_cell_length_c 24.7318
_cell_angle_alpha 127.653
_cell_angle_beta 127.653
_cell_angle_gamma 77.1881
_space_group_name_H-M_alt 'P 1'
_space_group_name_Hall 'P 1'
loop_
    _symmetry_equiv_pos_as_xyz
    x,y,z
loop_
    _atom_site_label
    _atom_site_type_symbol
    _atom_site_fract_x
    _atom_site_fract_y
    _atom_site_fract_z
    _atom_site_occupancy
    C0      C    0.87325   0.51255   0.88210   1.000
    C1      C    0.60238   0.48688   0.59510   1.000
    C2      C    0.63045   0.99115   0.11790   1.000
    C3      C    0.89178   0.00728   0.40490   1.000
    C4      C    0.26255   0.88045   0.13930   1.000
    C5      C    0.23688   0.14178   0.38450   1.000
    C6      C    0.74115   0.12325   0.86070   1.000
    C7      C    0.75728   0.85238   0.61550   1.000
    C8      C    0.61955   0.23745   0.86070   1.000
    C9      C    0.35822   0.26312   0.61550   1.000
    C10     C    0.37675   0.75885   0.13930   1.000
    C11     C    0.64762   0.74272   0.38450   1.000
    C12     C    0.50885   0.86955   0.88210   1.000
    C13     C    0.49272   0.60822   0.59510   1.000
    C14     C    0.98745   0.62675   0.11790   1.000
    C15     C    0.01312   0.89762   0.40490   1.000
    C16     C    0.87675   0.73745   0.61790   1.000
    C17     C    0.14762   0.76312   0.90490   1.000
    C18     C    0.11955   0.25885   0.38210   1.000
    C19     C    0.85822   0.24272   0.09510   1.000
    C20     C    0.48745   0.36955   0.36070   1.000
    C21     C    0.51312   0.10822   0.11550   1.000
    C22     C    0.00885   0.12675   0.63930   1.000
    C23     C    0.99272   0.39762   0.88450   1.000
    C24     C    0.13045   0.01255   0.63930   1.000
    C25     C    0.39178   0.98688   0.88450   1.000
    C26     C    0.37325   0.49115   0.36070   1.000
    C27     C    0.10238   0.50728   0.11550   1.000
    C28     C    0.24115   0.38045   0.61790   1.000
    C29     C    0.25728   0.64178   0.90490   1.000
    C30     C    0.76255   0.62325   0.38210   1.000
    C31     C    0.73688   0.35238   0.09510   1.000
