# CIF file generated by openbabel 2.4.90, see http://openbabel.sf.net
data_I
_chemical_name_common ''
_cell_length_a 24.7318
_cell_length_b 24.7318
_cell_length_c 24.7318
_cell_angle_alpha 127.653
_cell_angle_beta 127.653
_cell_angle_gamma 77.1881
_space_group_name_H-M_alt 'P 1'
_space_group_name_Hall 'P 1'
loop_
    _symmetry_equiv_pos_as_xyz
    x,y,z
loop_
    _atom_site_label
    _atom_site_type_symbol
    _atom_site_fract_x
    _atom_site_fract_y
    _atom_site_fract_z
    _atom_site_occupancy
    Zr0     Zr   0.02843   0.55264   0.00373   1.000
    Zr1     Zr   0.87325   0.51255   0.88210   1.000
    Zr2     Zr   0.60238   0.48688   0.59510   1.000
    Zr3     Zr   0.86935   0.49565   0.91790   1.000
    Zr4     Zr   0.92840   0.53080   0.89880   1.000
    Zr5     Zr   0.54716   0.47156   0.58000   1.000
    Zr6     Zr   0.94963   0.39453   0.89470   1.000
    Zr7     Zr   0.54891   0.02470   0.99627   1.000
    Zr8     Zr   0.63045   0.99115   0.11790   1.000
    Zr9     Zr   0.89178   0.00728   0.40490   1.000
    Zr10    Zr   0.57775   0.95145   0.08210   1.000
    Zr11    Zr   0.63200   0.02960   0.10120   1.000
    Zr12    Zr   0.89156   0.96716   0.42000   1.000
    Zr13    Zr   0.49983   0.05493   0.10530   1.000
    Zr14    Zr   0.30264   0.79891   0.02421   1.000
    Zr15    Zr   0.26255   0.88045   0.13930   1.000
    Zr16    Zr   0.23688   0.14178   0.38450   1.000
    Zr17    Zr   0.24565   0.82775   0.12630   1.000
    Zr18    Zr   0.28080   0.88200   0.10240   1.000
    Zr19    Zr   0.22156   0.14156   0.42440   1.000
    Zr20    Zr   0.14453   0.74983   0.94490   1.000
    Zr21    Zr   0.77470   0.27843   0.97579   1.000
    Zr22    Zr   0.74115   0.12325   0.86070   1.000
    Zr23    Zr   0.75728   0.85238   0.61550   1.000
    Zr24    Zr   0.70145   0.11935   0.87370   1.000
    Zr25    Zr   0.77960   0.17840   0.89760   1.000
    Zr26    Zr   0.71716   0.79716   0.57560   1.000
    Zr27    Zr   0.80493   0.19963   0.05510   1.000
    Zr28    Zr   0.70109   0.19736   0.97579   1.000
    Zr29    Zr   0.61955   0.23745   0.86070   1.000
    Zr30    Zr   0.35822   0.26312   0.61550   1.000
    Zr31    Zr   0.67225   0.25435   0.87370   1.000
    Zr32    Zr   0.61800   0.21920   0.89760   1.000
    Zr33    Zr   0.35844   0.27844   0.57560   1.000
    Zr34    Zr   0.75017   0.35547   0.05510   1.000
    Zr35    Zr   0.22157   0.72530   0.02421   1.000
    Zr36    Zr   0.37675   0.75885   0.13930   1.000
    Zr37    Zr   0.64762   0.74272   0.38450   1.000
    Zr38    Zr   0.38065   0.79855   0.12630   1.000
    Zr39    Zr   0.32160   0.72040   0.10240   1.000
    Zr40    Zr   0.70284   0.78284   0.42440   1.000
    Zr41    Zr   0.30037   0.69507   0.94490   1.000
    Zr42    Zr   0.47530   0.95109   0.00373   1.000
    Zr43    Zr   0.50885   0.86955   0.88210   1.000
    Zr44    Zr   0.49272   0.60822   0.59510   1.000
    Zr45    Zr   0.54855   0.92225   0.91790   1.000
    Zr46    Zr   0.47040   0.86800   0.89880   1.000
    Zr47    Zr   0.53284   0.60844   0.58000   1.000
    Zr48    Zr   0.44507   0.00017   0.89470   1.000
    Zr49    Zr   0.94736   0.47157   0.99627   1.000
    Zr50    Zr   0.98745   0.62675   0.11790   1.000
    Zr51    Zr   0.01312   0.89762   0.40490   1.000
    Zr52    Zr   0.00435   0.63065   0.08210   1.000
    Zr53    Zr   0.96920   0.57160   0.10120   1.000
    Zr54    Zr   0.02844   0.95284   0.42000   1.000
    Zr55    Zr   0.10547   0.55037   0.10530   1.000
    Zr56    Zr   0.72157   0.69736   0.49627   1.000
    Zr57    Zr   0.87675   0.73745   0.61790   1.000
    Zr58    Zr   0.14762   0.76312   0.90490   1.000
    Zr59    Zr   0.88065   0.75435   0.58210   1.000
    Zr60    Zr   0.82160   0.71920   0.60120   1.000
    Zr61    Zr   0.20284   0.77844   0.92000   1.000
    Zr62    Zr   0.80037   0.85547   0.60530   1.000
    Zr63    Zr   0.20109   0.22530   0.50373   1.000
    Zr64    Zr   0.11955   0.25885   0.38210   1.000
    Zr65    Zr   0.85822   0.24272   0.09510   1.000
    Zr66    Zr   0.17225   0.29855   0.41790   1.000
    Zr67    Zr   0.11800   0.22040   0.39880   1.000
    Zr68    Zr   0.85844   0.28284   0.08000   1.000
    Zr69    Zr   0.25017   0.19507   0.39470   1.000
    Zr70    Zr   0.44736   0.45109   0.47579   1.000
    Zr71    Zr   0.48745   0.36955   0.36070   1.000
    Zr72    Zr   0.51312   0.10822   0.11550   1.000
    Zr73    Zr   0.50435   0.42225   0.37370   1.000
    Zr74    Zr   0.46920   0.36800   0.39760   1.000
    Zr75    Zr   0.52844   0.10844   0.07560   1.000
    Zr76    Zr   0.60547   0.50017   0.55510   1.000
    Zr77    Zr   0.97530   0.97157   0.52421   1.000
    Zr78    Zr   0.00885   0.12675   0.63930   1.000
    Zr79    Zr   0.99272   0.39762   0.88450   1.000
    Zr80    Zr   0.04855   0.13065   0.62630   1.000
    Zr81    Zr   0.97040   0.07160   0.60240   1.000
    Zr82    Zr   0.03284   0.45284   0.92440   1.000
    Zr83    Zr   0.94507   0.05037   0.44490   1.000
    Zr84    Zr   0.04891   0.05264   0.52421   1.000
    Zr85    Zr   0.13045   0.01255   0.63930   1.000
    Zr86    Zr   0.39178   0.98688   0.88450   1.000
    Zr87    Zr   0.07775   0.99565   0.62630   1.000
    Zr88    Zr   0.13200   0.03080   0.60240   1.000
    Zr89    Zr   0.39156   0.97156   0.92440   1.000
    Zr90    Zr   0.99983   0.89453   0.44490   1.000
    Zr91    Zr   0.52843   0.52470   0.47579   1.000
    Zr92    Zr   0.37325   0.49115   0.36070   1.000
    Zr93    Zr   0.10238   0.50728   0.11550   1.000
    Zr94    Zr   0.36935   0.45145   0.37370   1.000
    Zr95    Zr   0.42840   0.52960   0.39760   1.000
    Zr96    Zr   0.04716   0.46716   0.07560   1.000
    Zr97    Zr   0.44963   0.55493   0.55510   1.000
    Zr98    Zr   0.27470   0.29891   0.49627   1.000
    Zr99    Zr   0.24115   0.38045   0.61790   1.000
    Zr100   Zr   0.25728   0.64178   0.90490   1.000
    Zr101   Zr   0.20145   0.32775   0.58210   1.000
    Zr102   Zr   0.27960   0.38200   0.60120   1.000
    Zr103   Zr   0.21716   0.64156   0.92000   1.000
    Zr104   Zr   0.30493   0.24983   0.60530   1.000
    Zr105   Zr   0.80264   0.77843   0.50373   1.000
    Zr106   Zr   0.76255   0.62325   0.38210   1.000
    Zr107   Zr   0.73688   0.35238   0.09510   1.000
    Zr108   Zr   0.74565   0.61935   0.41790   1.000
    Zr109   Zr   0.78080   0.67840   0.39880   1.000
    Zr110   Zr   0.72156   0.29716   0.08000   1.000
    Zr111   Zr   0.64453   0.69963   0.39470   1.000
    O112    O    0.01639   0.59165   0.04292   1.000
    O113    O    0.06695   0.55150   0.05452   1.000
    O114    O    0.97841   0.54172   0.95127   1.000
    O115    O    0.03063   0.50274   0.96407   1.000
    O116    O    0.52653   0.95127   0.04292   1.000
    O117    O    0.48757   0.00301   0.05452   1.000
    O118    O    0.47285   0.90955   0.95127   1.000
    O119    O    0.43343   0.96132   0.96407   1.000
    O120    O    0.29172   0.84045   0.06331   1.000
    O121    O    0.34164   0.79873   0.07526   1.000
    O122    O    0.25274   0.78867   0.97211   1.000
    O123    O    0.30151   0.74699   0.98456   1.000
    O124    O    0.27159   0.72285   0.06331   1.000
    O125    O    0.23361   0.77653   0.07526   1.000
    O126    O    0.21937   0.68343   0.97211   1.000
    O127    O    0.18305   0.73756   0.98456   1.000
    O128    O    0.74352   0.35392   0.07510   1.000
    O129    O    0.76244   0.31695   0.01545   1.000
    O130    O    0.83157   0.22118   0.07510   1.000
    O131    O    0.75301   0.19850   0.01545   1.000
    O132    O    0.07477   0.48722   0.09555   1.000
    O133    O    0.99726   0.46936   0.03594   1.000
    O134    O    0.52078   0.10833   0.09555   1.000
    O135    O    0.53868   0.06657   0.03594   1.000
    O136    O    0.72922   0.32477   0.08755   1.000
    O137    O    0.71132   0.24726   0.02790   1.000
    O138    O    0.85833   0.26278   0.08755   1.000
    O139    O    0.81657   0.28064   0.02790   1.000
    O140    O    0.99590   0.62870   0.10000   1.000
    O141    O    0.60410   0.97130   0.10000   1.000
    O142    O    0.97833   0.59917   0.10955   1.000
    O143    O    0.95828   0.52158   0.04874   1.000
    O144    O    0.63123   0.01038   0.10955   1.000
    O145    O    0.59045   0.02715   0.04874   1.000
    O146    O    0.27167   0.88122   0.12085   1.000
    O147    O    0.34918   0.73963   0.12085   1.000
    O148    O    0.50648   0.08157   0.11040   1.000
    O149    O    0.10392   0.52882   0.11040   1.000
    O150    O    0.25410   0.85410   0.13280   1.000
    O151    O    0.37870   0.77870   0.13280   1.000
    O152    O    0.37130   0.47130   0.36720   1.000
    O153    O    0.40082   0.51037   0.37915   1.000
    O154    O    0.49590   0.39590   0.36720   1.000
    O155    O    0.47833   0.36877   0.37915   1.000
    O156    O    0.40835   0.45127   0.42475   1.000
    O157    O    0.51639   0.47347   0.42475   1.000
    O158    O    0.77167   0.65082   0.39045   1.000
    O159    O    0.75410   0.62130   0.40000   1.000
    O160    O    0.11877   0.23962   0.39045   1.000
    O161    O    0.14590   0.27870   0.40000   1.000
    O162    O    0.24352   0.16842   0.38960   1.000
    O163    O    0.22922   0.14167   0.40445   1.000
    O164    O    0.64608   0.72117   0.38960   1.000
    O165    O    0.67523   0.76278   0.40445   1.000
    O166    O    0.68305   0.69850   0.44549   1.000
    O167    O    0.26243   0.24699   0.44549   1.000
    O168    O    0.45828   0.40954   0.43670   1.000
    O169    O    0.47842   0.52715   0.43670   1.000
    O170    O    0.15954   0.22285   0.45127   1.000
    O171    O    0.79172   0.72842   0.45127   1.000
    O172    O    0.02078   0.92523   0.41245   1.000
    O173    O    0.00648   0.89607   0.42490   1.000
    O174    O    0.89167   0.98722   0.41245   1.000
    O175    O    0.91843   0.02882   0.42490   1.000
    O176    O    0.73361   0.65836   0.45709   1.000
    O177    O    0.22347   0.29873   0.45709   1.000
    O178    O    0.93343   0.96937   0.47211   1.000
    O179    O    0.03867   0.00274   0.47211   1.000
    O180    O    0.21132   0.18343   0.46407   1.000
    O181    O    0.75274   0.78063   0.46407   1.000
    O182    O    0.99699   0.05150   0.48456   1.000
    O183    O    0.98756   0.93305   0.48456   1.000
    O184    O    0.44849   0.50301   0.51545   1.000
    O185    O    0.49726   0.46132   0.52790   1.000
    O186    O    0.56695   0.51243   0.51545   1.000
    O187    O    0.53063   0.56657   0.52790   1.000
    O188    O    0.31657   0.28868   0.53594   1.000
    O189    O    0.27715   0.34045   0.54873   1.000
    O190    O    0.71937   0.74726   0.53594   1.000
    O191    O    0.77159   0.70828   0.54873   1.000
    O192    O    0.20127   0.27652   0.54292   1.000
    O193    O    0.25301   0.23756   0.55452   1.000
    O194    O    0.84165   0.76639   0.54292   1.000
    O195    O    0.80150   0.81695   0.55452   1.000
    O196    O    0.09045   0.04172   0.56331   1.000
    O197    O    0.04873   0.09164   0.57526   1.000
    O198    O    0.97285   0.02158   0.56331   1.000
    O199    O    0.02652   0.98361   0.57526   1.000
    O200    O    0.60393   0.49352   0.57510   1.000
    O201    O    0.47117   0.58157   0.57510   1.000
    O202    O    0.35833   0.27078   0.59555   1.000
    O203    O    0.73722   0.82477   0.59555   1.000
    O204    O    0.57477   0.47922   0.58755   1.000
    O205    O    0.51278   0.60833   0.58755   1.000
    O206    O    0.87870   0.74590   0.60000   1.000
    O207    O    0.22130   0.35410   0.60000   1.000
    O208    O    0.26037   0.38122   0.60955   1.000
    O209    O    0.84918   0.72832   0.60955   1.000
    O210    O    0.98963   0.09918   0.62085   1.000
    O211    O    0.13122   0.02167   0.62085   1.000
    O212    O    0.33157   0.25648   0.61040   1.000
    O213    O    0.77882   0.85393   0.61040   1.000
    O214    O    0.10410   0.00410   0.63280   1.000
    O215    O    0.02870   0.12870   0.63280   1.000
    O216    O    0.64590   0.24590   0.86720   1.000
    O217    O    0.61877   0.22832   0.87915   1.000
    O218    O    0.72130   0.12130   0.86720   1.000
    O219    O    0.76037   0.15082   0.87915   1.000
    O220    O    0.72347   0.26639   0.92475   1.000
    O221    O    0.70127   0.15835   0.92475   1.000
    O222    O    0.48962   0.86877   0.89045   1.000
    O223    O    0.52870   0.89590   0.90000   1.000
    O224    O    0.90082   0.52167   0.89045   1.000
    O225    O    0.87130   0.50410   0.90000   1.000
    O226    O    0.41842   0.99352   0.88960   1.000
    O227    O    0.39167   0.97922   0.90445   1.000
    O228    O    0.97118   0.39607   0.88960   1.000
    O229    O    0.01278   0.42523   0.90445   1.000
    O230    O    0.94849   0.43305   0.94549   1.000
    O231    O    0.49699   0.01243   0.94549   1.000
    O232    O    0.77715   0.22841   0.93670   1.000
    O233    O    0.65954   0.20828   0.93670   1.000
    O234    O    0.17523   0.77078   0.91245   1.000
    O235    O    0.14607   0.75648   0.92490   1.000
    O236    O    0.23722   0.64167   0.91245   1.000
    O237    O    0.27882   0.66842   0.92490   1.000
    O238    O    0.54873   0.97347   0.95709   1.000
    O239    O    0.90835   0.48361   0.95709   1.000
    O240    O    0.98789   0.51210   0.00000   1.000
    O241    O    0.51211   0.98789   0.00000   1.000
    O242    O    0.26211   0.76210   0.02421   1.000
    O243    O    0.73790   0.23789   0.97579   1.000
    O244    O    0.76211   0.73789   0.50000   1.000
    O245    O    0.23790   0.26211   0.50000   1.000
    O246    O    0.48789   0.48789   0.47579   1.000
    O247    O    0.01210   0.01210   0.52421   1.000
    N248    N    0.38995   0.87500   0.01495   1.000
    O249    O    0.35980   0.84867   0.01825   1.000
    O250    O    0.41959   0.90133   0.01113   1.000
    N251    N    0.86005   0.37500   0.98505   1.000
    O252    O    0.89020   0.40845   0.98887   1.000
    O253    O    0.83041   0.34155   0.98175   1.000
    N254    N    0.74925   0.98785   0.73777   1.000
    O255    O    0.74610   0.03830   0.78283   1.000
    O256    O    0.75234   0.93734   0.69278   1.000
    N257    N    0.62500   0.11005   0.98505   1.000
    O258    O    0.65133   0.14020   0.98175   1.000
    O259    O    0.59867   0.08041   0.98887   1.000
    N260    N    0.12500   0.13995   0.51495   1.000
    O261    O    0.09867   0.10980   0.51825   1.000
    O262    O    0.15133   0.16959   0.51113   1.000
    N263    N    0.62500   0.61005   0.48505   1.000
    O264    O    0.65845   0.64020   0.48887   1.000
    O265    O    0.59155   0.58041   0.48175   1.000
    N266    N    0.51215   0.75075   0.26223   1.000
    O267    O    0.46170   0.75390   0.21717   1.000
    O268    O    0.56266   0.74766   0.30722   1.000
    N269    N    0.76148   0.99925   0.26139   1.000
    O270    O    0.80955   0.00234   0.31500   1.000
    O271    O    0.71326   0.99610   0.20780   1.000
    N272    N    0.01215   0.74991   0.76139   1.000
    O273    O    0.96170   0.74453   0.70780   1.000
    O274    O    0.06266   0.75544   0.81500   1.000
    N275    N    0.48852   0.24991   0.73777   1.000
    O276    O    0.53674   0.24453   0.78283   1.000
    O277    O    0.44045   0.25544   0.69278   1.000
    N278    N    0.49992   0.23852   0.23777   1.000
    O279    O    0.49453   0.28674   0.28283   1.000
    O280    O    0.50545   0.19045   0.19278   1.000
    N281    N    0.00075   0.26215   0.76223   1.000
    O282    O    0.00390   0.21170   0.71717   1.000
    O283    O    0.99766   0.31266   0.80722   1.000
    N284    N    0.23785   0.49925   0.23777   1.000
    O285    O    0.28830   0.49610   0.28283   1.000
    O286    O    0.18734   0.50234   0.19278   1.000
    N287    N    0.98852   0.25075   0.23861   1.000
    O288    O    0.94045   0.24766   0.18500   1.000
    O289    O    0.03674   0.25390   0.29220   1.000
    N290    N    0.75008   0.48785   0.23861   1.000
    O291    O    0.74455   0.43734   0.18500   1.000
    O292    O    0.75547   0.53830   0.29220   1.000
    N293    N    0.12500   0.63995   0.01495   1.000
    O294    O    0.09155   0.60980   0.01113   1.000
    O295    O    0.15845   0.66959   0.01825   1.000
    N296    N    0.88995   0.87500   0.51495   1.000
    O297    O    0.85980   0.84155   0.51113   1.000
    O298    O    0.91959   0.90845   0.51825   1.000
    N299    N    0.36005   0.37500   0.48505   1.000
    O300    O    0.33041   0.34867   0.48887   1.000
    O301    O    0.39020   0.40133   0.48175   1.000
    N302    N    0.99991   0.76215   0.26139   1.000
    O303    O    0.99453   0.71170   0.20780   1.000
    O304    O    0.00544   0.81266   0.31500   1.000
    N305    N    0.25009   0.01148   0.26223   1.000
    O306    O    0.25547   0.96326   0.21717   1.000
    O307    O    0.24455   0.05955   0.30722   1.000
    N308    N    0.73785   0.50008   0.73861   1.000
    O309    O    0.78830   0.50547   0.79220   1.000
    O310    O    0.68734   0.49455   0.68500   1.000
    N311    N    0.24925   0.51148   0.76139   1.000
    O312    O    0.25234   0.55955   0.81500   1.000
    O313    O    0.24610   0.46326   0.70780   1.000
    N314    N    0.50075   0.73852   0.73861   1.000
    O315    O    0.49766   0.69045   0.68500   1.000
    O316    O    0.50390   0.78674   0.79220   1.000
    N317    N    0.26148   0.00009   0.76223   1.000
    O318    O    0.30955   0.99455   0.80722   1.000
    O319    O    0.21326   0.00547   0.71717   1.000
loop_
    _geom_bond_atom_site_label_1
    _geom_bond_atom_site_label_2
    _geom_bond_distance
    _geom_bond_site_symmetry_2
    _ccdc_geom_bond_type
    Zr0    O112      1.02050      .   S
    Zr52   O112      1.02050      .   S
    Zr0    O113      1.02724      .   S
    Zr55   O113      1.02724      .   S
    Zr0    O114      1.02261  1_454   S
    Zr4    O114      1.02261      .   S
    Zr0    O115      1.02213  1_554   S
    Zr82   O115      1.02213      .   S
    Zr42   O116      1.02050      .   S
    Zr10   O116      1.02050      .   S
    Zr42   O117      1.02724  1_565   S
    Zr13   O117      1.02724      .   S
    Zr42   O118      1.02261  1_554   S
    Zr46   O118      1.02261      .   S
    Zr42   O119      1.02213  1_554   S
    Zr89   O119      1.02213      .   S
    Zr14   O120      1.02261      .   S
    Zr18   O120      1.02261      .   S
    Zr14   O121      1.02050      .   S
    Zr38   O121      1.02050      .   S
    Zr14   O122      1.02213  1_554   S
    Zr61   O122      1.02213      .   S
    Zr14   O123      1.02724  1_554   S
    Zr41   O123      1.02724      .   S
    Zr35   O124      1.02261      .   S
    Zr39   O124      1.02261      .   S
    Zr35   O125      1.02050      .   S
    Zr17   O125      1.02050      .   S
    Zr35   O126      1.02213  1_554   S
    Zr103  O126      1.02213      .   S
    Zr35   O127      1.02724  1_554   S
    Zr20   O127      1.02724      .   S
    Zr34   O128      0.63113      .   S
    Zr107  O128      0.63113      .   S
    Zr34   O129      1.02724      .   S
    Zr21   O129      1.02724  1_556   S
    Zr27   O130      0.63113      .   S
    Zr65   O130      0.63113      .   S
    Zr27   O131      1.02724      .   S
    Zr28   O131      1.02724  1_556   S
    Zr96   O132      0.62881      .   S
    Zr93   O132      0.62881      .   S
    Zr96   O133      1.02213  1_455   S
    Zr49   O133      1.02213  1_556   S
    Zr75   O134      0.62882      .   S
    Zr72   O134      0.62882      .   S
    Zr75   O135      1.02213      .   S
    Zr7    O135      1.02213  1_556   S
    Zr110  O136      0.62881      .   S
    Zr107  O136      0.62881      .   S
    Zr110  O137      1.02213      .   S
    Zr28   O137      1.02213  1_556   S
    Zr68   O138      0.62882      .   S
    Zr65   O138      0.62882      .   S
    Zr68   O139      1.02213      .   S
    Zr21   O139      1.02213  1_556   S
    Zr52   O140      0.62094  1_455   S
    Zr50   O140      0.62094      .   S
    Zr10   O141      0.62094      .   S
    Zr8    O141      0.62094      .   S
    Zr53   O142      0.63081      .   S
    Zr50   O142      0.63081      .   S
    Zr53   O143      1.02261      .   S
    Zr49   O143      1.02261  1_556   S
    Zr11   O144      0.63081      .   S
    Zr8    O144      0.63081  1_565   S
    Zr11   O145      1.02261      .   S
    Zr7    O145      1.02261  1_556   S
    Zr18   O146      0.63081      .   S
    Zr15   O146      0.63081      .   S
    Zr39   O147      0.63081      .   S
    Zr36   O147      0.63081      .   S
    Zr13   O148      0.63113      .   S
    Zr72   O148      0.63113      .   S
    Zr55   O149      0.63113      .   S
    Zr93   O149      0.63113      .   S
    Zr17   O150      0.62094      .   S
    Zr15   O150      0.62094      .   S
    Zr38   O151      0.62094      .   S
    Zr36   O151      0.62094      .   S
    Zr92   O152      0.62094      .   S
    Zr94   O152      0.62094      .   S
    Zr92   O153      0.63081      .   S
    Zr95   O153      0.63081      .   S
    Zr71   O154      0.62094      .   S
    Zr73   O154      0.62094      .   S
    Zr71   O155      0.63081      .   S
    Zr74   O155      0.63081      .   S
    Zr94   O156      1.02050      .   S
    Zr70   O156      1.02050      .   S
    Zr73   O157      1.02050      .   S
    Zr91   O157      1.02050      .   S
    Zr106  O158      0.63081      .   S
    Zr109  O158      0.63081      .   S
    Zr106  O159      0.62094      .   S
    Zr108  O159      0.62094      .   S
    Zr64   O160      0.63081      .   S
    Zr67   O160      0.63081      .   S
    Zr64   O161      0.62094      .   S
    Zr66   O161      0.62094      .   S
    Zr16   O162      0.63113      .   S
    Zr69   O162      0.63113      .   S
    Zr16   O163      0.62882      .   S
    Zr19   O163      0.62882      .   S
    Zr37   O164      0.63113      .   S
    Zr111  O164      0.63113      .   S
    Zr37   O165      0.62881      .   S
    Zr40   O165      0.62881      .   S
    Zr111  O166      1.02724      .   S
    Zr56   O166      1.02724      .   S
    Zr69   O167      1.02724      .   S
    Zr98   O167      1.02724      .   S
    Zr74   O168      1.02261      .   S
    Zr70   O168      1.02261      .   S
    Zr95   O169      1.02261      .   S
    Zr91   O169      1.02261      .   S
    Zr67   O170      1.02261      .   S
    Zr63   O170      1.02261      .   S
    Zr109  O171      1.02261      .   S
    Zr105  O171      1.02261      .   S
    Zr51   O172      0.62881      .   S
    Zr54   O172      0.62881      .   S
    Zr51   O173      0.63113      .   S
    Zr90   O173      0.63113  1_655   S
    Zr9    O174      0.62882  1_545   S
    Zr12   O174      0.62882      .   S
    Zr9    O175      0.63113      .   S
    Zr83   O175      0.63113      .   S
    Zr108  O176      1.02050      .   S
    Zr56   O176      1.02050      .   S
    Zr66   O177      1.02050      .   S
    Zr98   O177      1.02050      .   S
    Zr12   O178      1.02213      .   S
    Zr77   O178      1.02213      .   S
    Zr54   O179      1.02213  1_565   S
    Zr84   O179      1.02213      .   S
    Zr19   O180      1.02213      .   S
    Zr63   O180      1.02213      .   S
    Zr40   O181      1.02213      .   S
    Zr105  O181      1.02213      .   S
    Zr83   O182      1.02724      .   S
    Zr84   O182      1.02724  1_455   S
    Zr90   O183      1.02724      .   S
    Zr77   O183      1.02724      .   S
    Zr70   O184      1.02724      .   S
    Zr97   O184      1.02724      .   S
    Zr70   O185      1.02213      .   S
    Zr5    O185      1.02213      .   S
    Zr91   O186      1.02724      .   S
    Zr76   O186      1.02724      .   S
    Zr91   O187      1.02213      .   S
    Zr47   O187      1.02213      .   S
    Zr98   O188      1.02213      .   S
    Zr33   O188      1.02213      .   S
    Zr98   O189      1.02261      .   S
    Zr102  O189      1.02261      .   S
    Zr56   O190      1.02213      .   S
    Zr26   O190      1.02213      .   S
    Zr56   O191      1.02261      .   S
    Zr60   O191      1.02261      .   S
    Zr63   O192      1.02050      .   S
    Zr101  O192      1.02050      .   S
    Zr63   O193      1.02724      .   S
    Zr104  O193      1.02724      .   S
    Zr105  O194      1.02050      .   S
    Zr59   O194      1.02050      .   S
    Zr105  O195      1.02724      .   S
    Zr62   O195      1.02724      .   S
    Zr84   O196      1.02261      .   S
    Zr88   O196      1.02261      .   S
    Zr84   O197      1.02050      .   S
    Zr80   O197      1.02050      .   S
    Zr77   O198      1.02261  1_565   S
    Zr81   O198      1.02261      .   S
    Zr77   O199      1.02050  1_655   S
    Zr87   O199      1.02050      .   S
    Zr76   O200      0.63113      .   S
    Zr2    O200      0.63113      .   S
    Zr97   O201      0.63113      .   S
    Zr44   O201      0.63113      .   S
    Zr33   O202      0.62882      .   S
    Zr30   O202      0.62882      .   S
    Zr26   O203      0.62881      .   S
    Zr23   O203      0.62881      .   S
    Zr5    O204      0.62881      .   S
    Zr2    O204      0.62881      .   S
    Zr47   O205      0.62882      .   S
    Zr44   O205      0.62882      .   S
    Zr59   O206      0.62094      .   S
    Zr57   O206      0.62094      .   S
    Zr101  O207      0.62094      .   S
    Zr99   O207      0.62094      .   S
    Zr102  O208      0.63081      .   S
    Zr99   O208      0.63081      .   S
    Zr60   O209      0.63081      .   S
    Zr57   O209      0.63081      .   S
    Zr81   O210      0.63081      .   S
    Zr78   O210      0.63081  1_455   S
    Zr88   O211      0.63081      .   S
    Zr85   O211      0.63081      .   S
    Zr104  O212      0.63113      .   S
    Zr30   O212      0.63113      .   S
    Zr62   O213      0.63113      .   S
    Zr23   O213      0.63113      .   S
    Zr87   O214      0.62094  1_565   S
    Zr85   O214      0.62094      .   S
    Zr80   O215      0.62094      .   S
    Zr78   O215      0.62094      .   S
    Zr29   O216      0.62094      .   S
    Zr31   O216      0.62094      .   S
    Zr29   O217      0.63081      .   S
    Zr32   O217      0.63081      .   S
    Zr22   O218      0.62094      .   S
    Zr24   O218      0.62094      .   S
    Zr22   O219      0.63081      .   S
    Zr25   O219      0.63081      .   S
    Zr31   O220      1.02050      .   S
    Zr21   O220      1.02050      .   S
    Zr24   O221      1.02050      .   S
    Zr28   O221      1.02050      .   S
    Zr43   O222      0.63081      .   S
    Zr46   O222      0.63081      .   S
    Zr43   O223      0.62094      .   S
    Zr45   O223      0.62094      .   S
    Zr1    O224      0.63081      .   S
    Zr4    O224      0.63081      .   S
    Zr1    O225      0.62094      .   S
    Zr3    O225      0.62094      .   S
    Zr86   O226      0.63113      .   S
    Zr48   O226      0.63113  1_545   S
    Zr86   O227      0.62882      .   S
    Zr89   O227      0.62882      .   S
    Zr79   O228      0.63113      .   S
    Zr6    O228      0.63113      .   S
    Zr79   O229      0.62881  1_655   S
    Zr82   O229      0.62881      .   S
    Zr6    O230      1.02724      .   S
    Zr49   O230      1.02724      .   S
    Zr48   O231      1.02724      .   S
    Zr7    O231      1.02724      .   S
    Zr25   O232      1.02261      .   S
    Zr21   O232      1.02261      .   S
    Zr32   O233      1.02261      .   S
    Zr28   O233      1.02261      .   S
    Zr58   O234      0.62881      .   S
    Zr61   O234      0.62881      .   S
    Zr58   O235      0.63113      .   S
    Zr20   O235      0.63113      .   S
    Zr100  O236      0.62882      .   S
    Zr103  O236      0.62882      .   S
    Zr100  O237      0.63113      .   S
    Zr41   O237      0.63113      .   S
    Zr45   O238      1.02050      .   S
    Zr7    O238      1.02050  1_545   S
    Zr3    O239      1.02050      .   S
    Zr49   O239      1.02050      .   S
    Zr0    O240      1.49609  1_455   S
    Zr49   O240      1.49609  1_556   S
    Zr7    O241      1.49609  1_546   S
    Zr42   O241      1.49609      .   S
    Zr14   O242      1.49609      .   S
    Zr35   O242      1.49609      .   S
    Zr21   O243      1.49609      .   S
    Zr28   O243      1.49609      .   S
    Zr56   O244      1.49609      .   S
    Zr105  O244      1.49609      .   S
    Zr63   O245      1.49609      .   S
    Zr98   O245      1.49609      .   S
    Zr70   O246      1.49609      .   S
    Zr91   O246      1.49609      .   S
    Zr77   O247      1.49609  1_665   S
    Zr84   O247      1.49609      .   S
    N248   O249      1.15828      .   S
    Zr14   O249      2.18680      .   S
    N248   O250      1.15826      .   S
    Zr42   O250      2.18678      .   S
    N251   O252      1.15827      .   S
    Zr49   O252      2.18680      .   S
    N251   O253      1.15826      .   S
    Zr21   O253      2.18678      .   S
    N254   O255      1.08119  1_565   S
    Zr22   O255      1.83529      .   S
    N254   O256      1.08062      .   S
    Zr23   O256      1.82979      .   S
    N257   O258      1.15828      .   S
    Zr28   O258      2.18680      .   S
    N257   O259      1.15826      .   S
    Zr7    O259      2.18678      .   S
    N260   O261      1.15828      .   S
    Zr84   O261      2.18680      .   S
    N260   O262      1.15826      .   S
    Zr63   O262      2.18678      .   S
    N263   O264      1.15827      .   S
    Zr56   O264      2.18680      .   S
    N263   O265      1.15826      .   S
    Zr91   O265      2.18678      .   S
    N266   O267      1.08119      .   S
    Zr36   O267      1.83529      .   S
    N266   O268      1.08062      .   S
    Zr37   O268      1.82979      .   S
    N269   O270      1.08063  1_565   S
    Zr9    O270      1.82980      .   S
    N269   O271      1.08118      .   S
    Zr8    O271      1.83527      .   S
    N272   O273      1.08118  1_455   S
    Zr57   O273      1.83528      .   S
    N272   O274      1.08062      .   S
    Zr58   O274      1.82979      .   S
    N275   O276      1.08119      .   S
    Zr29   O276      1.83528      .   S
    N275   O277      1.08062      .   S
    Zr30   O277      1.82979      .   S
    N278   O279      1.08119      .   S
    Zr71   O279      1.83528      .   S
    N278   O280      1.08062      .   S
    Zr72   O280      1.82979      .   S
    N281   O282      1.08119      .   S
    Zr78   O282      1.83529      .   S
    N281   O283      1.08062  1_455   S
    Zr79   O283      1.82979      .   S
    N284   O285      1.08119      .   S
    Zr92   O285      1.83529      .   S
    N284   O286      1.08062      .   S
    Zr93   O286      1.82979      .   S
    N287   O288      1.08063      .   S
    Zr65   O288      1.82980      .   S
    N287   O289      1.08118  1_655   S
    Zr64   O289      1.83527      .   S
    N290   O291      1.08062      .   S
    Zr107  O291      1.82979      .   S
    N290   O292      1.08118      .   S
    Zr106  O292      1.83528      .   S
    N293   O294      1.15827      .   S
    Zr0    O294      2.18680      .   S
    N293   O295      1.15826      .   S
    Zr35   O295      2.18678      .   S
    N296   O297      1.15827      .   S
    Zr105  O297      2.18680      .   S
    N296   O298      1.15826      .   S
    Zr77   O298      2.18678      .   S
    N299   O300      1.15826      .   S
    Zr98   O300      2.18678      .   S
    N299   O301      1.15828      .   S
    Zr70   O301      2.18680      .   S
    N302   O303      1.08118      .   S
    Zr50   O303      1.83528      .   S
    N302   O304      1.08062  1_655   S
    Zr51   O304      1.82979      .   S
    N305   O306      1.08119  1_545   S
    Zr15   O306      1.83528      .   S
    N305   O307      1.08062      .   S
    Zr16   O307      1.82979      .   S
    N308   O309      1.08118      .   S
    Zr1    O309      1.83528      .   S
    N308   O310      1.08062      .   S
    Zr2    O310      1.82979      .   S
    N311   O312      1.08063      .   S
    Zr100  O312      1.82980      .   S
    N311   O313      1.08118      .   S
    Zr99   O313      1.83527      .   S
    N314   O315      1.08063      .   S
    Zr44   O315      1.82980      .   S
    N314   O316      1.08118      .   S
    Zr43   O316      1.83527      .   S
    N317   O318      1.08062  1_545   S
    Zr86   O318      1.82979      .   S
    N317   O319      1.08119      .   S
    Zr85   O319      1.83528      .   S
