# CIF file generated by openbabel 2.4.90, see http://openbabel.sf.net
data_I
_chemical_name_common ''
_cell_length_a 24.7318
_cell_length_b 24.7318
_cell_length_c 24.7318
_cell_angle_alpha 127.653
_cell_angle_beta 127.653
_cell_angle_gamma 77.1881
_space_group_name_H-M_alt 'P 1'
_space_group_name_Hall 'P 1'
loop_
    _symmetry_equiv_pos_as_xyz
    x,y,z
loop_
    _atom_site_label
    _atom_site_type_symbol
    _atom_site_fract_x
    _atom_site_fract_y
    _atom_site_fract_z
    _atom_site_occupancy
    C0      C    0.02843   0.55264   0.00373   1.000
    C1      C    0.67127   0.49117   0.66770   1.000
    C2      C    0.80425   0.50915   0.80950   1.000
    C3      C    0.87325   0.51255   0.88210   1.000
    C4      C    0.60238   0.48688   0.59510   1.000
    C5      C    0.20026   0.62516   0.03990   1.000
    C6      C    0.09400   0.63040   0.93040   1.000
    C7      C    0.01020   0.25280   0.70800   1.000
    C8      C    0.72820   0.54480   0.71940   1.000
    C9      C    0.79284   0.55294   0.78850   1.000
    C10     C    0.00553   0.31743   0.76370   1.000
    C11     C    0.14750   0.72400   0.08170   1.000
    C12     C    0.16224   0.67314   0.01890   1.000
    C13     C    0.99082   0.14068   0.76508   1.000
    C14     C    0.01102   0.38373   0.76001   1.000
    C15     C    0.86935   0.49565   0.91790   1.000
    C16     C    0.92840   0.53080   0.89880   1.000
    C17     C    0.54716   0.47156   0.58000   1.000
    C18     C    0.94963   0.39453   0.89470   1.000
    C19     C    0.21020   0.58501   0.99093   1.000
    C20     C    0.25275   0.65742   0.10774   1.000
    C21     C    0.06367   0.66664   0.91421   1.000
    C22     C    0.10475   0.59162   0.88192   1.000
    C23     C    0.01827   0.24506   0.66318   1.000
    C24     C    0.72167   0.58252   0.70482   1.000
    C25     C    0.19935   0.75657   0.15018   1.000
    C26     C    0.11793   0.76043   0.06542   1.000
    C27     C    0.54891   0.02470   0.99627   1.000
    C28     C    0.82347   0.00357   0.33230   1.000
    C29     C    0.69965   0.99475   0.19050   1.000
    C30     C    0.63045   0.99115   0.11790   1.000
    C31     C    0.89178   0.00728   0.40490   1.000
    C32     C    0.58526   0.16036   0.96010   1.000
    C33     C    0.70000   0.16360   0.06960   1.000
    C34     C    0.54480   0.30220   0.29200   1.000
    C35     C    0.82540   0.00880   0.28060   1.000
    C36     C    0.76444   0.00434   0.21150   1.000
    C37     C    0.55373   0.24183   0.23630   1.000
    C38     C    0.64230   0.06580   0.91830   1.000
    C39     C    0.65424   0.14334   0.98110   1.000
    C40     C    0.37560   0.22574   0.23492   1.000
    C41     C    0.62372   0.25101   0.23999   1.000
    C42     C    0.57775   0.95145   0.08210   1.000
    C43     C    0.63200   0.02960   0.10120   1.000
    C44     C    0.89156   0.96716   0.42000   1.000
    C45     C    0.49983   0.05493   0.10530   1.000
    C46     C    0.59408   0.21927   0.00907   1.000
    C47     C    0.54968   0.14501   0.89226   1.000
    C48     C    0.75243   0.14946   0.08579   1.000
    C49     C    0.70970   0.22283   0.11808   1.000
    C50     C    0.58188   0.35510   0.33682   1.000
    C51     C    0.87770   0.01685   0.29518   1.000
    C52     C    0.60638   0.04917   0.84982   1.000
    C53     C    0.69500   0.05251   0.93458   1.000
    C54     C    0.30264   0.79891   0.02421   1.000
    C55     C    0.24117   0.07347   0.31990   1.000
    C56     C    0.25915   0.94965   0.20490   1.000
    C57     C    0.26255   0.88045   0.13930   1.000
    C58     C    0.23688   0.14178   0.38450   1.000
    C59     C    0.37516   0.83526   0.92490   1.000
    C60     C    0.38040   0.95000   0.03640   1.000
    C61     C    0.00280   0.79480   0.74260   1.000
    C62     C    0.29480   0.07540   0.31660   1.000
    C63     C    0.30294   0.01444   0.26010   1.000
    C64     C    0.06743   0.80373   0.81190   1.000
    C65     C    0.47400   0.89230   0.07650   1.000
    C66     C    0.42314   0.90424   0.01090   1.000
    C67     C    0.89068   0.62560   0.64986   1.000
    C68     C    0.13373   0.87372   0.87271   1.000
    C69     C    0.24565   0.82775   0.12630   1.000
    C70     C    0.28080   0.88200   0.10240   1.000
    C71     C    0.22156   0.14156   0.42440   1.000
    C72     C    0.14453   0.74983   0.94490   1.000
    C73     C    0.33501   0.84408   0.87480   1.000
    C74     C    0.40742   0.79968   0.90467   1.000
    C75     C    0.41664   0.00243   0.10297   1.000
    C76     C    0.34162   0.95970   0.98687   1.000
    C77     C    0.99506   0.83188   0.72678   1.000
    C78     C    0.33252   0.12770   0.36085   1.000
    C79     C    0.50657   0.85638   0.05722   1.000
    C80     C    0.51043   0.94500   0.14249   1.000
    C81     C    0.77470   0.27843   0.97579   1.000
    C82     C    0.75357   0.92127   0.68010   1.000
    C83     C    0.74475   0.05425   0.79510   1.000
    C84     C    0.74115   0.12325   0.86070   1.000
    C85     C    0.75728   0.85238   0.61550   1.000
    C86     C    0.91036   0.45026   0.07510   1.000
    C87     C    0.91360   0.34400   0.96360   1.000
    C88     C    0.05220   0.26020   0.25740   1.000
    C89     C    0.75880   0.97820   0.68340   1.000
    C90     C    0.75434   0.04284   0.73990   1.000
    C91     C    0.99183   0.25553   0.18810   1.000
    C92     C    0.81580   0.39750   0.92350   1.000
    C93     C    0.89334   0.41224   0.98910   1.000
    C94     C    0.97574   0.24082   0.35014   1.000
    C95     C    0.00101   0.26102   0.12729   1.000
    C96     C    0.70145   0.11935   0.87370   1.000
    C97     C    0.77960   0.17840   0.89760   1.000
    C98     C    0.71716   0.79716   0.57560   1.000
    C99     C    0.80493   0.19963   0.05510   1.000
    C100    C    0.96927   0.46020   0.12520   1.000
    C101    C    0.89501   0.50275   0.09533   1.000
    C102    C    0.89946   0.31367   0.89703   1.000
    C103    C    0.97283   0.35475   0.01313   1.000
    C104    C    0.10510   0.26827   0.27322   1.000
    C105    C    0.76685   0.97167   0.63915   1.000
    C106    C    0.79917   0.44935   0.94278   1.000
    C107    C    0.80251   0.36793   0.85751   1.000
    C108    C    0.70109   0.19736   0.97579   1.000
    C109    C    0.42653   0.25883   0.68010   1.000
    C110    C    0.55035   0.24085   0.79510   1.000
    C111    C    0.61955   0.23745   0.86070   1.000
    C112    C    0.35822   0.26312   0.61550   1.000
    C113    C    0.66474   0.12484   0.07510   1.000
    C114    C    0.55000   0.11960   0.96360   1.000
    C115    C    0.70520   0.49720   0.25740   1.000
    C116    C    0.42460   0.20520   0.68340   1.000
    C117    C    0.48556   0.19706   0.73990   1.000
    C118    C    0.69627   0.43257   0.18810   1.000
    C119    C    0.60770   0.02600   0.92350   1.000
    C120    C    0.59576   0.07686   0.98910   1.000
    C121    C    0.87440   0.60932   0.35014   1.000
    C122    C    0.62628   0.36627   0.12729   1.000
    C123    C    0.67225   0.25435   0.87370   1.000
    C124    C    0.61800   0.21920   0.89760   1.000
    C125    C    0.35844   0.27844   0.57560   1.000
    C126    C    0.75017   0.35547   0.05510   1.000
    C127    C    0.65592   0.16499   0.12520   1.000
    C128    C    0.70032   0.09258   0.09533   1.000
    C129    C    0.49757   0.08336   0.89703   1.000
    C130    C    0.54030   0.15838   0.01313   1.000
    C131    C    0.66812   0.50494   0.27322   1.000
    C132    C    0.37230   0.16748   0.63915   1.000
    C133    C    0.64362   0.99343   0.94278   1.000
    C134    C    0.55500   0.98957   0.85751   1.000
    C135    C    0.22157   0.72530   0.02421   1.000
    C136    C    0.57873   0.74643   0.31990   1.000
    C137    C    0.44575   0.75525   0.20490   1.000
    C138    C    0.37675   0.75885   0.13930   1.000
    C139    C    0.64762   0.74272   0.38450   1.000
    C140    C    0.04974   0.58964   0.92490   1.000
    C141    C    0.15600   0.58640   0.03640   1.000
    C142    C    0.23980   0.44780   0.74260   1.000
    C143    C    0.52180   0.74120   0.31660   1.000
    C144    C    0.45716   0.74566   0.26010   1.000
    C145    C    0.24447   0.50817   0.81190   1.000
    C146    C    0.10250   0.68420   0.07650   1.000
    C147    C    0.08776   0.60666   0.01090   1.000
    C148    C    0.25918   0.52426   0.64986   1.000
    C149    C    0.23898   0.49899   0.87271   1.000
    C150    C    0.38065   0.79855   0.12630   1.000
    C151    C    0.32160   0.72040   0.10240   1.000
    C152    C    0.70284   0.78284   0.42440   1.000
    C153    C    0.30037   0.69507   0.94490   1.000
    C154    C    0.03980   0.53073   0.87480   1.000
    C155    C    0.99725   0.60499   0.90467   1.000
    C156    C    0.18633   0.60054   0.10297   1.000
    C157    C    0.14525   0.52717   0.98687   1.000
    C158    C    0.23173   0.39490   0.72678   1.000
    C159    C    0.52833   0.73315   0.36085   1.000
    C160    C    0.05065   0.70083   0.05722   1.000
    C161    C    0.13207   0.69749   0.14249   1.000
    C162    C    0.47530   0.95109   0.00373   1.000
    C163    C    0.49643   0.67653   0.66770   1.000
    C164    C    0.50525   0.80035   0.80950   1.000
    C165    C    0.50885   0.86955   0.88210   1.000
    C166    C    0.49272   0.60822   0.59510   1.000
    C167    C    0.33964   0.91474   0.03990   1.000
    C168    C    0.33640   0.80000   0.93040   1.000
    C169    C    0.19780   0.95520   0.70800   1.000
    C170    C    0.49120   0.67460   0.71940   1.000
    C171    C    0.49566   0.73556   0.78850   1.000
    C172    C    0.25817   0.94627   0.76370   1.000
    C173    C    0.43420   0.85770   0.08170   1.000
    C174    C    0.35666   0.84576   0.01890   1.000
    C175    C    0.27426   0.12440   0.76508   1.000
    C176    C    0.24899   0.87628   0.76001   1.000
    C177    C    0.54855   0.92225   0.91790   1.000
    C178    C    0.47040   0.86800   0.89880   1.000
    C179    C    0.53284   0.60844   0.58000   1.000
    C180    C    0.44507   0.00017   0.89470   1.000
    C181    C    0.28073   0.90592   0.99093   1.000
    C182    C    0.35499   0.95032   0.10774   1.000
    C183    C    0.35054   0.74757   0.91421   1.000
    C184    C    0.27717   0.79030   0.88192   1.000
    C185    C    0.14490   0.91812   0.66318   1.000
    C186    C    0.48315   0.62230   0.70482   1.000
    C187    C    0.45083   0.89362   0.15018   1.000
    C188    C    0.44749   0.80500   0.06542   1.000
    C189    C    0.94736   0.47157   0.99627   1.000
    C190    C    0.00883   0.82873   0.33230   1.000
    C191    C    0.99085   0.69575   0.19050   1.000
    C192    C    0.98745   0.62675   0.11790   1.000
    C193    C    0.01312   0.89762   0.40490   1.000
    C194    C    0.87484   0.29974   0.96010   1.000
    C195    C    0.86960   0.40600   0.06960   1.000
    C196    C    0.24720   0.48980   0.29200   1.000
    C197    C    0.95520   0.77180   0.28060   1.000
    C198    C    0.94706   0.70716   0.21150   1.000
    C199    C    0.18257   0.49447   0.23630   1.000
    C200    C    0.77600   0.35250   0.91830   1.000
    C201    C    0.82686   0.33776   0.98110   1.000
    C202    C    0.35932   0.50918   0.23492   1.000
    C203    C    0.11627   0.48898   0.23999   1.000
    C204    C    0.00435   0.63065   0.08210   1.000
    C205    C    0.96920   0.57160   0.10120   1.000
    C206    C    0.02844   0.95284   0.42000   1.000
    C207    C    0.10547   0.55037   0.10530   1.000
    C208    C    0.91499   0.28980   0.00907   1.000
    C209    C    0.84258   0.24725   0.89226   1.000
    C210    C    0.83336   0.43633   0.08579   1.000
    C211    C    0.90838   0.39525   0.11808   1.000
    C212    C    0.25494   0.48173   0.33682   1.000
    C213    C    0.91748   0.77833   0.29518   1.000
    C214    C    0.74343   0.30065   0.84982   1.000
    C215    C    0.73957   0.38207   0.93458   1.000
    C216    C    0.72157   0.69736   0.49627   1.000
    C217    C    0.07873   0.75883   0.83230   1.000
    C218    C    0.94575   0.74085   0.69050   1.000
    C219    C    0.87675   0.73745   0.61790   1.000
    C220    C    0.14762   0.76312   0.90490   1.000
    C221    C    0.54974   0.62484   0.46010   1.000
    C222    C    0.65600   0.61960   0.56960   1.000
    C223    C    0.73980   0.99720   0.79200   1.000
    C224    C    0.02180   0.70520   0.78060   1.000
    C225    C    0.95716   0.69706   0.71150   1.000
    C226    C    0.74447   0.93257   0.73630   1.000
    C227    C    0.60250   0.52600   0.41830   1.000
    C228    C    0.58776   0.57686   0.48110   1.000
    C229    C    0.75918   0.10932   0.73492   1.000
    C230    C    0.73898   0.86627   0.73999   1.000
    C231    C    0.88065   0.75435   0.58210   1.000
    C232    C    0.82160   0.71920   0.60120   1.000
    C233    C    0.20284   0.77844   0.92000   1.000
    C234    C    0.80037   0.85547   0.60530   1.000
    C235    C    0.53980   0.66499   0.50907   1.000
    C236    C    0.49725   0.59258   0.39226   1.000
    C237    C    0.68633   0.58336   0.58579   1.000
    C238    C    0.64525   0.65838   0.61808   1.000
    C239    C    0.73173   0.00494   0.83682   1.000
    C240    C    0.02833   0.66748   0.79518   1.000
    C241    C    0.55065   0.49343   0.34982   1.000
    C242    C    0.63207   0.48957   0.43458   1.000
    C243    C    0.20109   0.22530   0.50373   1.000
    C244    C    0.92653   0.24643   0.16770   1.000
    C245    C    0.05035   0.25525   0.30950   1.000
    C246    C    0.11955   0.25885   0.38210   1.000
    C247    C    0.85822   0.24272   0.09510   1.000
    C248    C    0.16474   0.08964   0.53990   1.000
    C249    C    0.05000   0.08640   0.43040   1.000
    C250    C    0.20520   0.94780   0.20800   1.000
    C251    C    0.92460   0.24120   0.21940   1.000
    C252    C    0.98556   0.24566   0.28850   1.000
    C253    C    0.19627   0.00817   0.26370   1.000
    C254    C    0.10770   0.18420   0.58170   1.000
    C255    C    0.09576   0.10666   0.51890   1.000
    C256    C    0.37440   0.02426   0.26508   1.000
    C257    C    0.12628   0.99899   0.26001   1.000
    C258    C    0.17225   0.29855   0.41790   1.000
    C259    C    0.11800   0.22040   0.39880   1.000
    C260    C    0.85844   0.28284   0.08000   1.000
    C261    C    0.25017   0.19507   0.39470   1.000
    C262    C    0.15592   0.03073   0.49093   1.000
    C263    C    0.20032   0.10499   0.60774   1.000
    C264    C    0.99757   0.10054   0.41421   1.000
    C265    C    0.04030   0.02717   0.38192   1.000
    C266    C    0.16812   0.89490   0.16318   1.000
    C267    C    0.87230   0.23315   0.20482   1.000
    C268    C    0.14362   0.20083   0.65018   1.000
    C269    C    0.05500   0.19749   0.56542   1.000
    C270    C    0.44736   0.45109   0.47579   1.000
    C271    C    0.50883   0.17653   0.18010   1.000
    C272    C    0.49085   0.30035   0.29510   1.000
    C273    C    0.48745   0.36955   0.36070   1.000
    C274    C    0.51312   0.10822   0.11550   1.000
    C275    C    0.37484   0.41474   0.57510   1.000
    C276    C    0.36960   0.30000   0.46360   1.000
    C277    C    0.74720   0.45520   0.75740   1.000
    C278    C    0.45520   0.17460   0.18340   1.000
    C279    C    0.44706   0.23556   0.23990   1.000
    C280    C    0.68257   0.44627   0.68810   1.000
    C281    C    0.27600   0.35770   0.42350   1.000
    C282    C    0.32686   0.34576   0.48910   1.000
    C283    C    0.85932   0.62440   0.85014   1.000
    C284    C    0.61627   0.37628   0.62729   1.000
    C285    C    0.50435   0.42225   0.37370   1.000
    C286    C    0.46920   0.36800   0.39760   1.000
    C287    C    0.52844   0.10844   0.07560   1.000
    C288    C    0.60547   0.50017   0.55510   1.000
    C289    C    0.41499   0.40592   0.62520   1.000
    C290    C    0.34258   0.45032   0.59533   1.000
    C291    C    0.33336   0.24757   0.39703   1.000
    C292    C    0.40838   0.29030   0.51313   1.000
    C293    C    0.75494   0.41812   0.77322   1.000
    C294    C    0.41748   0.12230   0.13915   1.000
    C295    C    0.24343   0.39362   0.44278   1.000
    C296    C    0.23957   0.30500   0.35751   1.000
    C297    C    0.97530   0.97157   0.52421   1.000
    C298    C    0.99643   0.32873   0.81990   1.000
    C299    C    0.00525   0.19575   0.70490   1.000
    C300    C    0.00885   0.12675   0.63930   1.000
    C301    C    0.99272   0.39762   0.88450   1.000
    C302    C    0.83964   0.79974   0.42490   1.000
    C303    C    0.83640   0.90600   0.53640   1.000
    C304    C    0.69780   0.98980   0.24260   1.000
    C305    C    0.99120   0.27180   0.81660   1.000
    C306    C    0.99566   0.20716   0.76010   1.000
    C307    C    0.75817   0.99447   0.31190   1.000
    C308    C    0.93420   0.85250   0.57650   1.000
    C309    C    0.85666   0.83776   0.51090   1.000
    C310    C    0.77426   0.00918   0.14986   1.000
    C311    C    0.74899   0.98898   0.37271   1.000
    C312    C    0.04855   0.13065   0.62630   1.000
    C313    C    0.97040   0.07160   0.60240   1.000
    C314    C    0.03284   0.45284   0.92440   1.000
    C315    C    0.94507   0.05037   0.44490   1.000
    C316    C    0.78073   0.78980   0.37480   1.000
    C317    C    0.85499   0.74725   0.40467   1.000
    C318    C    0.85054   0.93633   0.60297   1.000
    C319    C    0.77717   0.89525   0.48687   1.000
    C320    C    0.64490   0.98173   0.22678   1.000
    C321    C    0.98315   0.27833   0.86085   1.000
    C322    C    0.95083   0.80065   0.55722   1.000
    C323    C    0.94749   0.88207   0.64249   1.000
    C324    C    0.04891   0.05264   0.52421   1.000
    C325    C    0.32347   0.99117   0.81990   1.000
    C326    C    0.19965   0.00915   0.70490   1.000
    C327    C    0.13045   0.01255   0.63930   1.000
    C328    C    0.39178   0.98688   0.88450   1.000
    C329    C    0.08526   0.12516   0.42490   1.000
    C330    C    0.20000   0.13040   0.53640   1.000
    C331    C    0.04480   0.75280   0.24260   1.000
    C332    C    0.32540   0.04480   0.81660   1.000
    C333    C    0.26444   0.05294   0.76010   1.000
    C334    C    0.05373   0.81743   0.31190   1.000
    C335    C    0.14230   0.22400   0.57650   1.000
    C336    C    0.15424   0.17314   0.51090   1.000
    C337    C    0.87560   0.64068   0.14986   1.000
    C338    C    0.12372   0.88373   0.37271   1.000
    C339    C    0.07775   0.99565   0.62630   1.000
    C340    C    0.13200   0.03080   0.60240   1.000
    C341    C    0.39156   0.97156   0.92440   1.000
    C342    C    0.99983   0.89453   0.44490   1.000
    C343    C    0.09408   0.08501   0.37480   1.000
    C344    C    0.04968   0.15742   0.40467   1.000
    C345    C    0.25243   0.16664   0.60297   1.000
    C346    C    0.20970   0.09162   0.48687   1.000
    C347    C    0.08188   0.74506   0.22678   1.000
    C348    C    0.37770   0.08252   0.86085   1.000
    C349    C    0.10638   0.25657   0.55722   1.000
    C350    C    0.19500   0.26043   0.64249   1.000
    C351    C    0.52843   0.52470   0.47579   1.000
    C352    C    0.17127   0.50357   0.18010   1.000
    C353    C    0.30425   0.49475   0.29510   1.000
    C354    C    0.37325   0.49115   0.36070   1.000
    C355    C    0.10238   0.50728   0.11550   1.000
    C356    C    0.70026   0.66036   0.57510   1.000
    C357    C    0.59400   0.66360   0.46360   1.000
    C358    C    0.51020   0.80220   0.75740   1.000
    C359    C    0.22820   0.50880   0.18340   1.000
    C360    C    0.29284   0.50434   0.23990   1.000
    C361    C    0.50553   0.74183   0.68810   1.000
    C362    C    0.64750   0.56580   0.42350   1.000
    C363    C    0.66224   0.64334   0.48910   1.000
    C364    C    0.49082   0.72574   0.85014   1.000
    C365    C    0.51102   0.75101   0.62729   1.000
    C366    C    0.36935   0.45145   0.37370   1.000
    C367    C    0.42840   0.52960   0.39760   1.000
    C368    C    0.04716   0.46716   0.07560   1.000
    C369    C    0.44963   0.55493   0.55510   1.000
    C370    C    0.71020   0.71927   0.62520   1.000
    C371    C    0.75275   0.64501   0.59533   1.000
    C372    C    0.56367   0.64946   0.39703   1.000
    C373    C    0.60475   0.72283   0.51313   1.000
    C374    C    0.51827   0.85510   0.77322   1.000
    C375    C    0.22167   0.51685   0.13915   1.000
    C376    C    0.69935   0.54917   0.44278   1.000
    C377    C    0.61793   0.55251   0.35751   1.000
    C378    C    0.27470   0.29891   0.49627   1.000
    C379    C    0.25357   0.57347   0.83230   1.000
    C380    C    0.24475   0.44965   0.69050   1.000
    C381    C    0.24115   0.38045   0.61790   1.000
    C382    C    0.25728   0.64178   0.90490   1.000
    C383    C    0.41036   0.33526   0.46010   1.000
    C384    C    0.41360   0.45000   0.56960   1.000
    C385    C    0.55220   0.29480   0.79200   1.000
    C386    C    0.25880   0.57540   0.78060   1.000
    C387    C    0.25434   0.51444   0.71150   1.000
    C388    C    0.49183   0.30373   0.73630   1.000
    C389    C    0.31580   0.39230   0.41830   1.000
    C390    C    0.39334   0.40424   0.48110   1.000
    C391    C    0.47574   0.12560   0.73492   1.000
    C392    C    0.50101   0.37372   0.73999   1.000
    C393    C    0.20145   0.32775   0.58210   1.000
    C394    C    0.27960   0.38200   0.60120   1.000
    C395    C    0.21716   0.64156   0.92000   1.000
    C396    C    0.30493   0.24983   0.60530   1.000
    C397    C    0.46927   0.34408   0.50907   1.000
    C398    C    0.39501   0.29968   0.39226   1.000
    C399    C    0.39946   0.50243   0.58579   1.000
    C400    C    0.47283   0.45970   0.61808   1.000
    C401    C    0.60510   0.33188   0.83682   1.000
    C402    C    0.26685   0.62770   0.79518   1.000
    C403    C    0.29917   0.35638   0.34982   1.000
    C404    C    0.30251   0.44500   0.43458   1.000
    C405    C    0.80264   0.77843   0.50373   1.000
    C406    C    0.74117   0.42127   0.16770   1.000
    C407    C    0.75915   0.55425   0.30950   1.000
    C408    C    0.76255   0.62325   0.38210   1.000
    C409    C    0.73688   0.35238   0.09510   1.000
    C410    C    0.87516   0.95026   0.53990   1.000
    C411    C    0.88040   0.84400   0.43040   1.000
    C412    C    0.50280   0.76020   0.20800   1.000
    C413    C    0.79480   0.47820   0.21940   1.000
    C414    C    0.80294   0.54284   0.28850   1.000
    C415    C    0.56743   0.75553   0.26370   1.000
    C416    C    0.97400   0.89750   0.58170   1.000
    C417    C    0.92314   0.91224   0.51890   1.000
    C418    C    0.39068   0.74082   0.26508   1.000
    C419    C    0.63373   0.76102   0.26001   1.000
    C420    C    0.74565   0.61935   0.41790   1.000
    C421    C    0.78080   0.67840   0.39880   1.000
    C422    C    0.72156   0.29716   0.08000   1.000
    C423    C    0.64453   0.69963   0.39470   1.000
    C424    C    0.83501   0.96020   0.49093   1.000
    C425    C    0.90742   0.00275   0.60774   1.000
    C426    C    0.91664   0.81367   0.41421   1.000
    C427    C    0.84162   0.85475   0.38192   1.000
    C428    C    0.49506   0.76827   0.16318   1.000
    C429    C    0.83252   0.47167   0.20482   1.000
    C430    C    0.00657   0.94935   0.65018   1.000
    C431    C    0.01043   0.86793   0.56542   1.000
    O432    O    0.05809   0.57965   0.00732   1.000
    O433    O    0.01639   0.59165   0.04292   1.000
    O434    O    0.06695   0.55150   0.05452   1.000
    O435    O    0.97841   0.54172   0.95127   1.000
    O436    O    0.03063   0.50274   0.96407   1.000
    O437    O    0.44922   0.92767   0.00732   1.000
    O438    O    0.52653   0.95127   0.04292   1.000
    O439    O    0.48757   0.00301   0.05452   1.000
    O440    O    0.47285   0.90955   0.95127   1.000
    O441    O    0.43343   0.96132   0.96407   1.000
    O442    O    0.58967   0.18981   0.98459   1.000
    O443    O    0.89491   0.29477   0.98459   1.000
    O444    O    0.40177   0.92712   0.02365   1.000
    O445    O    0.44857   0.89827   0.04370   1.000
    O446    O    0.39915   0.86975   0.96790   1.000
    O447    O    0.12188   0.59653   0.02365   1.000
    O448    O    0.09513   0.64543   0.04370   1.000
    O449    O    0.06875   0.59815   0.96790   1.000
    O450    O    0.54515   0.13899   0.98837   1.000
    O451    O    0.94322   0.34937   0.98837   1.000
    O452    O    0.19190   0.69922   0.02156   1.000
    O453    O    0.18125   0.64915   0.02940   1.000
    O454    O    0.15487   0.69857   0.05030   1.000
    O455    O    0.12812   0.65177   0.97465   1.000
    O456    O    0.32965   0.82234   0.02156   1.000
    O457    O    0.34815   0.88025   0.02940   1.000
    O458    O    0.39543   0.85173   0.05030   1.000
    O459    O    0.34653   0.82288   0.97465   1.000
    O460    O    0.29172   0.84045   0.06331   1.000
    O461    O    0.34164   0.79873   0.07526   1.000
    O462    O    0.25274   0.78867   0.97211   1.000
    O463    O    0.30151   0.74699   0.98456   1.000
    O464    O    0.27159   0.72285   0.06331   1.000
    O465    O    0.23361   0.77653   0.07526   1.000
    O466    O    0.21937   0.68343   0.97211   1.000
    O467    O    0.18305   0.73756   0.98456   1.000
    O468    O    0.36002   0.93237   0.03815   1.000
    O469    O    0.39852   0.97622   0.06969   1.000
    O470    O    0.36101   0.95485   0.01164   1.000
    O471    O    0.17813   0.60578   0.03815   1.000
    O472    O    0.17117   0.59347   0.06969   1.000
    O473    O    0.15062   0.55678   0.01164   1.000
    O474    O    0.22651   0.64129   0.07382   1.000
    O475    O    0.20523   0.60508   0.01542   1.000
    O476    O    0.34732   0.93253   0.07382   1.000
    O477    O    0.31019   0.91033   0.01542   1.000
    O478    O    0.74352   0.35392   0.07510   1.000
    O479    O    0.76244   0.31695   0.01545   1.000
    O480    O    0.83157   0.22118   0.07510   1.000
    O481    O    0.75301   0.19850   0.01545   1.000
    O482    O    0.49028   0.87434   0.06686   1.000
    O483    O    0.07658   0.69251   0.06686   1.000
    O484    O    0.44085   0.83135   0.07356   1.000
    O485    O    0.13271   0.74222   0.07356   1.000
    O486    O    0.68237   0.14422   0.07235   1.000
    O487    O    0.72622   0.15653   0.07770   1.000
    O488    O    0.70485   0.19321   0.09384   1.000
    O489    O    0.67712   0.15347   0.02535   1.000
    O490    O    0.88998   0.42813   0.07235   1.000
    O491    O    0.85148   0.42117   0.07770   1.000
    O492    O    0.88899   0.40062   0.09384   1.000
    O493    O    0.84823   0.37188   0.02535   1.000
    O494    O    0.68253   0.10871   0.08522   1.000
    O495    O    0.66033   0.14492   0.10015   1.000
    O496    O    0.63025   0.10085   0.03210   1.000
    O497    O    0.90268   0.47651   0.08522   1.000
    O498    O    0.93982   0.45523   0.10015   1.000
    O499    O    0.90185   0.43125   0.03210   1.000
    O500    O    0.07477   0.48722   0.09555   1.000
    O501    O    0.99726   0.46936   0.03594   1.000
    O502    O    0.52078   0.10833   0.09555   1.000
    O503    O    0.53868   0.06657   0.03594   1.000
    O504    O    0.45410   0.87500   0.07910   1.000
    O505    O    0.49221   0.91865   0.10950   1.000
    O506    O    0.12500   0.70410   0.07910   1.000
    O507    O    0.11728   0.69085   0.10950   1.000
    O508    O    0.72922   0.32477   0.08755   1.000
    O509    O    0.71132   0.24726   0.02790   1.000
    O510    O    0.85833   0.26278   0.08755   1.000
    O511    O    0.81657   0.28064   0.02790   1.000
    O512    O    0.44251   0.87566   0.11594   1.000
    O513    O    0.17342   0.74029   0.11594   1.000
    O514    O    0.99590   0.62870   0.10000   1.000
    O515    O    0.60410   0.97130   0.10000   1.000
    O516    O    0.73902   0.38683   0.13140   1.000
    O517    O    0.89237   0.24458   0.13140   1.000
    O518    O    0.97833   0.59917   0.10955   1.000
    O519    O    0.95828   0.52158   0.04874   1.000
    O520    O    0.63123   0.01038   0.10955   1.000
    O521    O    0.59045   0.02715   0.04874   1.000
    O522    O    0.27167   0.88122   0.12085   1.000
    O523    O    0.34918   0.73963   0.12085   1.000
    O524    O    0.50648   0.08157   0.11040   1.000
    O525    O    0.10392   0.52882   0.11040   1.000
    O526    O    0.13683   0.50542   0.14780   1.000
    O527    O    0.51098   0.14237   0.14780   1.000
    O528    O    0.98915   0.66125   0.15420   1.000
    O529    O    0.66505   0.99295   0.15420   1.000
    O530    O    0.25410   0.85410   0.13280   1.000
    O531    O    0.37870   0.77870   0.13280   1.000
    O532    O    0.66127   0.39942   0.15770   1.000
    O533    O    0.99642   0.25827   0.15770   1.000
    O534    O    0.43634   0.14845   0.16128   1.000
    O535    O    0.22493   0.51283   0.16128   1.000
    O536    O    0.26085   0.91505   0.17210   1.000
    O537    O    0.41125   0.75705   0.17210   1.000
    O538    O    0.91133   0.67392   0.18068   1.000
    O539    O    0.76935   0.00676   0.18068   1.000
    O540    O    0.49893   0.76423   0.18559   1.000
    O541    O    0.18666   0.92135   0.18559   1.000
    O542    O    0.71872   0.42692   0.17790   1.000
    O543    O    0.76798   0.44973   0.19355   1.000
    O544    O    0.95918   0.25098   0.17790   1.000
    O545    O    0.92556   0.24382   0.19355   1.000
    O546    O    0.19973   0.50618   0.18175   1.000
    O547    O    0.17692   0.49902   0.20820   1.000
    O548    O    0.48201   0.17556   0.18175   1.000
    O549    O    0.53128   0.20918   0.20820   1.000
    O550    O    0.26052   0.50657   0.21165   1.000
    O551    O    0.45113   0.20508   0.21165   1.000
    O552    O    0.70073   0.46488   0.22275   1.000
    O553    O    0.02202   0.25786   0.22275   1.000
    O554    O    0.96896   0.70145   0.20100   1.000
    O555    O    0.01782   0.72428   0.21655   1.000
    O556    O    0.73205   0.99954   0.20100   1.000
    O557    O    0.69872   0.99228   0.21655   1.000
    O558    O    0.89845   0.23718   0.21211   1.000
    O559    O    0.81366   0.47494   0.21211   1.000
    O560    O    0.47427   0.75773   0.20645   1.000
    O561    O    0.45146   0.75045   0.23250   1.000
    O562    O    0.23218   0.94873   0.20645   1.000
    O563    O    0.28104   0.98205   0.23250   1.000
    O564    O    0.53512   0.75787   0.23585   1.000
    O565    O    0.20073   0.97798   0.23585   1.000
    O566    O    0.95113   0.73948   0.24605   1.000
    O567    O    0.79492   0.00657   0.24605   1.000
    O568    O    0.95508   0.24343   0.25395   1.000
    O569    O    0.79887   0.51052   0.25395   1.000
    O570    O    0.67135   0.98577   0.23469   1.000
    O571    O    0.06334   0.74893   0.23469   1.000
    O572    O    0.41133   0.23065   0.23741   1.000
    O573    O    0.32608   0.50676   0.23741   1.000
    O574    O    0.14942   0.49173   0.23815   1.000
    O575    O    0.21488   0.49213   0.26415   1.000
    O576    O    0.58873   0.24642   0.23815   1.000
    O577    O    0.54927   0.27202   0.26415   1.000
    O578    O    0.46896   0.26795   0.26750   1.000
    O579    O    0.29854   0.49954   0.26750   1.000
    O580    O    0.04926   0.78512   0.27725   1.000
    O581    O    0.72799   0.99214   0.27725   1.000
    O582    O    0.68666   0.50107   0.26531   1.000
    O583    O    0.73218   0.52572   0.28345   1.000
    O584    O    0.07865   0.26423   0.26531   1.000
    O585    O    0.05127   0.25772   0.28345   1.000
    O586    O    0.60058   0.75828   0.26186   1.000
    O587    O    0.16127   0.00358   0.26186   1.000
    O588    O    0.42392   0.74324   0.26259   1.000
    O589    O    0.48948   0.74343   0.28835   1.000
    O590    O    0.33867   0.01935   0.26259   1.000
    O591    O    0.29887   0.04492   0.28835   1.000
    O592    O    0.57308   0.75098   0.29180   1.000
    O593    O    0.21872   0.04082   0.29180   1.000
    O594    O    0.85155   0.01282   0.28789   1.000
    O595    O    0.82444   0.00618   0.30645   1.000
    O596    O    0.93634   0.77507   0.28789   1.000
    O597    O    0.98201   0.80027   0.30645   1.000
    O598    O    0.01796   0.25045   0.29900   1.000
    O599    O    0.98065   0.24324   0.31932   1.000
    O600    O    0.78104   0.54855   0.29900   1.000
    O601    O    0.83867   0.57608   0.31932   1.000
    O602    O    0.51782   0.30127   0.29355   1.000
    O603    O    0.56334   0.32865   0.31441   1.000
    O604    O    0.27572   0.49228   0.29355   1.000
    O605    O    0.25107   0.48577   0.31441   1.000
    O606    O    0.48915   0.33495   0.32790   1.000
    O607    O    0.33875   0.49295   0.32790   1.000
    O608    O    0.08495   0.25705   0.34580   1.000
    O609    O    0.76085   0.58875   0.34580   1.000
    O610    O    0.79082   0.99902   0.32210   1.000
    O611    O    0.75358   0.99172   0.34231   1.000
    O612    O    0.03128   0.82308   0.32210   1.000
    O613    O    0.08873   0.85058   0.34231   1.000
    O614    O    0.26799   0.07443   0.31825   1.000
    O615    O    0.31366   0.10155   0.33873   1.000
    O616    O    0.55027   0.74381   0.31825   1.000
    O617    O    0.52507   0.73717   0.33873   1.000
    O618    O    0.61318   0.74457   0.35220   1.000
    O619    O    0.23902   0.10762   0.35220   1.000
    O620    O    0.85762   0.00542   0.36860   1.000
    O621    O    0.01097   0.86318   0.36860   1.000
    O622    O    0.57658   0.50971   0.38406   1.000
    O623    O    0.30749   0.37434   0.38406   1.000
    O624    O    0.25779   0.33135   0.39051   1.000
    O625    O    0.63272   0.55915   0.39051   1.000
    O626    O    0.37130   0.47130   0.36720   1.000
    O627    O    0.40082   0.51037   0.37915   1.000
    O628    O    0.49590   0.39590   0.36720   1.000
    O629    O    0.47833   0.36877   0.37915   1.000
    O630    O    0.40835   0.45127   0.42475   1.000
    O631    O    0.51639   0.47347   0.42475   1.000
    O632    O    0.81019   0.79477   0.39985   1.000
    O633    O    0.08967   0.10508   0.39985   1.000
    O634    O    0.04515   0.05678   0.40616   1.000
    O635    O    0.86101   0.84937   0.40616   1.000
    O636    O    0.77167   0.65082   0.39045   1.000
    O637    O    0.75410   0.62130   0.40000   1.000
    O638    O    0.11877   0.23962   0.39045   1.000
    O639    O    0.14590   0.27870   0.40000   1.000
    O640    O    0.24352   0.16842   0.38960   1.000
    O641    O    0.22922   0.14167   0.40445   1.000
    O642    O    0.64608   0.72117   0.38960   1.000
    O643    O    0.67523   0.76278   0.40445   1.000
    O644    O    0.52350   0.60871   0.42618   1.000
    O645    O    0.40269   0.31747   0.42618   1.000
    O646    O    0.68305   0.69850   0.44549   1.000
    O647    O    0.26243   0.24699   0.44549   1.000
    O648    O    0.35148   0.27378   0.43032   1.000
    O649    O    0.57883   0.65653   0.43032   1.000
    O650    O    0.45828   0.40954   0.43670   1.000
    O651    O    0.47842   0.52715   0.43670   1.000
    O652    O    0.15954   0.22285   0.45127   1.000
    O653    O    0.79172   0.72842   0.45127   1.000
    O654    O    0.06747   0.14129   0.41479   1.000
    O655    O    0.84732   0.77350   0.41479   1.000
    O656    O    0.02078   0.92523   0.41245   1.000
    O657    O    0.00648   0.89607   0.42490   1.000
    O658    O    0.89167   0.98722   0.41245   1.000
    O659    O    0.91843   0.02882   0.42490   1.000
    O660    O    0.02378   0.09347   0.42231   1.000
    O661    O    0.89852   0.82883   0.42231   1.000
    O662    O    0.73361   0.65836   0.45709   1.000
    O663    O    0.22347   0.29873   0.45709   1.000
    O664    O    0.62500   0.54590   0.42090   1.000
    O665    O    0.61729   0.50778   0.42644   1.000
    O666    O    0.59513   0.55143   0.44970   1.000
    O667    O    0.29590   0.37500   0.42090   1.000
    O668    O    0.30916   0.41865   0.42644   1.000
    O669    O    0.35457   0.39827   0.44970   1.000
    O670    O    0.93343   0.96937   0.47211   1.000
    O671    O    0.03867   0.00274   0.47211   1.000
    O672    O    0.67342   0.55749   0.43314   1.000
    O673    O    0.65487   0.60457   0.45630   1.000
    O674    O    0.25972   0.37566   0.43314   1.000
    O675    O    0.30143   0.35173   0.45630   1.000
    O676    O    0.21132   0.18343   0.46407   1.000
    O677    O    0.75274   0.78063   0.46407   1.000
    O678    O    0.86002   0.82187   0.42765   1.000
    O679    O    0.84815   0.81875   0.46790   1.000
    O680    O    0.06763   0.10578   0.42765   1.000
    O681    O    0.11975   0.14915   0.46790   1.000
    O682    O    0.07288   0.09653   0.47465   1.000
    O683    O    0.90177   0.87812   0.47465   1.000
    O684    O    0.99699   0.05150   0.48456   1.000
    O685    O    0.98756   0.93305   0.48456   1.000
    O686    O    0.57187   0.64422   0.46185   1.000
    O687    O    0.56875   0.60085   0.47060   1.000
    O688    O    0.54477   0.64491   0.48459   1.000
    O689    O    0.38998   0.31763   0.46185   1.000
    O690    O    0.40185   0.36975   0.47060   1.000
    O691    O    0.43981   0.33967   0.48459   1.000
    O692    O    0.34823   0.32288   0.47635   1.000
    O693    O    0.38899   0.29515   0.48837   1.000
    O694    O    0.62812   0.65347   0.47635   1.000
    O695    O    0.59937   0.69321   0.48837   1.000
    O696    O    0.42035   0.42766   0.47845   1.000
    O697    O    0.44849   0.50301   0.51545   1.000
    O698    O    0.49726   0.46132   0.52790   1.000
    O699    O    0.55809   0.55078   0.47845   1.000
    O700    O    0.56695   0.51243   0.51545   1.000
    O701    O    0.53063   0.56657   0.52790   1.000
    O702    O    0.62188   0.59823   0.52535   1.000
    O703    O    0.40347   0.42712   0.52535   1.000
    O704    O    0.80679   0.90063   0.51164   1.000
    O705    O    0.20485   0.11101   0.51164   1.000
    O706    O    0.69190   0.67035   0.49269   1.000
    O707    O    0.68125   0.65185   0.53210   1.000
    O708    O    0.30078   0.32233   0.49269   1.000
    O709    O    0.35085   0.38025   0.53210   1.000
    O710    O    0.85508   0.95523   0.51542   1.000
    O711    O    0.16033   0.06018   0.51542   1.000
    O712    O    0.31657   0.28868   0.53594   1.000
    O713    O    0.27715   0.34045   0.54873   1.000
    O714    O    0.71937   0.74726   0.53594   1.000
    O715    O    0.77159   0.70828   0.54873   1.000
    O716    O    0.17766   0.19922   0.50732   1.000
    O717    O    0.20127   0.27652   0.54292   1.000
    O718    O    0.25301   0.23756   0.55452   1.000
    O719    O    0.82965   0.80810   0.50732   1.000
    O720    O    0.84165   0.76639   0.54292   1.000
    O721    O    0.80150   0.81695   0.55452   1.000
    O722    O    0.84653   0.87188   0.52365   1.000
    O723    O    0.89543   0.84513   0.54370   1.000
    O724    O    0.17712   0.15177   0.52365   1.000
    O725    O    0.14827   0.19857   0.54370   1.000
    O726    O    0.07233   0.07965   0.52156   1.000
    O727    O    0.13025   0.09815   0.52940   1.000
    O728    O    0.10173   0.14543   0.55030   1.000
    O729    O    0.94922   0.94190   0.52156   1.000
    O730    O    0.89915   0.93125   0.52940   1.000
    O731    O    0.94857   0.90487   0.55030   1.000
    O732    O    0.09045   0.04172   0.56331   1.000
    O733    O    0.04873   0.09164   0.57526   1.000
    O734    O    0.97285   0.02158   0.56331   1.000
    O735    O    0.02652   0.98361   0.57526   1.000
    O736    O    0.18237   0.11002   0.53815   1.000
    O737    O    0.22621   0.14852   0.56969   1.000
    O738    O    0.85578   0.92813   0.53815   1.000
    O739    O    0.84347   0.92116   0.56969   1.000
    O740    O    0.18253   0.09732   0.57382   1.000
    O741    O    0.89129   0.97651   0.57382   1.000
    O742    O    0.60393   0.49352   0.57510   1.000
    O743    O    0.47117   0.58157   0.57510   1.000
    O744    O    0.94251   0.82658   0.56686   1.000
    O745    O    0.12434   0.24028   0.56686   1.000
    O746    O    0.08135   0.19084   0.57356   1.000
    O747    O    0.99221   0.88271   0.57356   1.000
    O748    O    0.39422   0.43237   0.57235   1.000
    O749    O    0.40653   0.47621   0.57769   1.000
    O750    O    0.44321   0.45485   0.59384   1.000
    O751    O    0.67813   0.63998   0.57235   1.000
    O752    O    0.67116   0.60148   0.57769   1.000
    O753    O    0.65063   0.63899   0.59384   1.000
    O754    O    0.35871   0.43253   0.58522   1.000
    O755    O    0.39492   0.41033   0.60015   1.000
    O756    O    0.72651   0.65268   0.58522   1.000
    O757    O    0.70523   0.68982   0.60015   1.000
    O758    O    0.35833   0.27078   0.59555   1.000
    O759    O    0.73722   0.82477   0.59555   1.000
    O760    O    0.95410   0.87500   0.57910   1.000
    O761    O    0.94085   0.86729   0.60950   1.000
    O762    O    0.12500   0.20410   0.57910   1.000
    O763    O    0.16865   0.24221   0.60950   1.000
    O764    O    0.57477   0.47922   0.58755   1.000
    O765    O    0.51278   0.60833   0.58755   1.000
    O766    O    0.99029   0.92343   0.61594   1.000
    O767    O    0.12566   0.19251   0.61594   1.000
    O768    O    0.87870   0.74590   0.60000   1.000
    O769    O    0.22130   0.35410   0.60000   1.000
    O770    O    0.63682   0.48902   0.63140   1.000
    O771    O    0.49458   0.64237   0.63140   1.000
    O772    O    0.26037   0.38122   0.60955   1.000
    O773    O    0.84918   0.72832   0.60955   1.000
    O774    O    0.98963   0.09918   0.62085   1.000
    O775    O    0.13122   0.02167   0.62085   1.000
    O776    O    0.33157   0.25648   0.61040   1.000
    O777    O    0.77882   0.85393   0.61040   1.000
    O778    O    0.75542   0.88683   0.64780   1.000
    O779    O    0.39237   0.26097   0.64780   1.000
    O780    O    0.24295   0.41505   0.65420   1.000
    O781    O    0.91125   0.73915   0.65420   1.000
    O782    O    0.10410   0.00410   0.63280   1.000
    O783    O    0.02870   0.12870   0.63280   1.000
    O784    O    0.50828   0.74642   0.65770   1.000
    O785    O    0.64942   0.41127   0.65770   1.000
    O786    O    0.76283   0.97493   0.66128   1.000
    O787    O    0.39845   0.18634   0.66128   1.000
    O788    O    0.00705   0.16125   0.67210   1.000
    O789    O    0.16505   0.01085   0.67210   1.000
    O790    O    0.92392   0.66133   0.68068   1.000
    O791    O    0.25676   0.51935   0.68068   1.000
    O792    O    0.01423   0.24893   0.68559   1.000
    O793    O    0.17135   0.93666   0.68559   1.000
    O794    O    0.67692   0.46872   0.67790   1.000
    O795    O    0.69973   0.51798   0.69355   1.000
    O796    O    0.50098   0.70918   0.67790   1.000
    O797    O    0.49382   0.67556   0.69355   1.000
    O798    O    0.75618   0.94973   0.68175   1.000
    O799    O    0.74902   0.92692   0.70820   1.000
    O800    O    0.42556   0.23201   0.68175   1.000
    O801    O    0.45918   0.28128   0.70820   1.000
    O802    O    0.75657   0.01052   0.71165   1.000
    O803    O    0.45508   0.20113   0.71165   1.000
    O804    O    0.50787   0.77201   0.72275   1.000
    O805    O    0.71488   0.45073   0.72275   1.000
    O806    O    0.95145   0.71896   0.70100   1.000
    O807    O    0.97428   0.76782   0.71655   1.000
    O808    O    0.24954   0.48204   0.70100   1.000
    O809    O    0.24227   0.44872   0.71655   1.000
    O810    O    0.48718   0.64845   0.71211   1.000
    O811    O    0.72493   0.56366   0.71211   1.000
    O812    O    0.19872   0.98218   0.70645   1.000
    O813    O    0.23204   0.03104   0.73250   1.000
    O814    O    0.00772   0.22427   0.70645   1.000
    O815    O    0.00045   0.20145   0.73250   1.000
    O816    O    0.00787   0.28512   0.73585   1.000
    O817    O    0.22799   0.95073   0.73585   1.000
    O818    O    0.98948   0.70113   0.74605   1.000
    O819    O    0.25657   0.54492   0.74605   1.000
    O820    O    0.49343   0.70508   0.75395   1.000
    O821    O    0.76052   0.54887   0.75395   1.000
    O822    O    0.99893   0.81334   0.73469   1.000
    O823    O    0.23576   0.42135   0.73469   1.000
    O824    O    0.75676   0.07608   0.73741   1.000
    O825    O    0.48065   0.16133   0.73741   1.000
    O826    O    0.74173   0.89942   0.73815   1.000
    O827    O    0.74214   0.96488   0.76415   1.000
    O828    O    0.49642   0.33872   0.73815   1.000
    O829    O    0.52201   0.29927   0.76415   1.000
    O830    O    0.74955   0.04854   0.76750   1.000
    O831    O    0.51795   0.21895   0.76750   1.000
    O832    O    0.24213   0.47798   0.77725   1.000
    O833    O    0.03511   0.79927   0.77725   1.000
    O834    O    0.51423   0.82865   0.76531   1.000
    O835    O    0.50772   0.80127   0.78345   1.000
    O836    O    0.75107   0.43666   0.76531   1.000
    O837    O    0.77572   0.48217   0.78345   1.000
    O838    O    0.25358   0.91127   0.76186   1.000
    O839    O    0.00828   0.35058   0.76186   1.000
    O840    O    0.26935   0.08867   0.76259   1.000
    O841    O    0.29492   0.04887   0.78835   1.000
    O842    O    0.99324   0.17392   0.76259   1.000
    O843    O    0.99343   0.23948   0.78835   1.000
    O844    O    0.29082   0.96872   0.79180   1.000
    O845    O    0.00098   0.32308   0.79180   1.000
    O846    O    0.02506   0.68634   0.78789   1.000
    O847    O    0.05026   0.73202   0.80645   1.000
    O848    O    0.26282   0.60155   0.78789   1.000
    O849    O    0.25618   0.57444   0.80645   1.000
    O850    O    0.79854   0.53104   0.79900   1.000
    O851    O    0.82608   0.58867   0.81932   1.000
    O852    O    0.50045   0.76795   0.79900   1.000
    O853    O    0.49324   0.73065   0.81932   1.000
    O854    O    0.55127   0.26782   0.79355   1.000
    O855    O    0.57865   0.31334   0.81441   1.000
    O856    O    0.74228   0.02572   0.79355   1.000
    O857    O    0.73576   0.00107   0.81441   1.000
    O858    O    0.74295   0.08875   0.82790   1.000
    O859    O    0.58495   0.23915   0.82790   1.000
    O860    O    0.50705   0.83495   0.84580   1.000
    O861    O    0.83875   0.51085   0.84580   1.000
    O862    O    0.07308   0.78128   0.82210   1.000
    O863    O    0.10058   0.83873   0.84231   1.000
    O864    O    0.24902   0.54082   0.82210   1.000
    O865    O    0.24172   0.50358   0.84231   1.000
    O866    O    0.99382   0.30027   0.81825   1.000
    O867    O    0.98717   0.27506   0.83873   1.000
    O868    O    0.32443   0.01798   0.81825   1.000
    O869    O    0.35155   0.06366   0.83873   1.000
    O870    O    0.99457   0.36317   0.85220   1.000
    O871    O    0.35762   0.98902   0.85220   1.000
    O872    O    0.25542   0.60762   0.86860   1.000
    O873    O    0.11317   0.76097   0.86860   1.000
    O874    O    0.62434   0.05749   0.88406   1.000
    O875    O    0.75971   0.32657   0.88406   1.000
    O876    O    0.80915   0.38271   0.89051   1.000
    O877    O    0.58135   0.00778   0.89051   1.000
    O878    O    0.64590   0.24590   0.86720   1.000
    O879    O    0.61877   0.22832   0.87915   1.000
    O880    O    0.72130   0.12130   0.86720   1.000
    O881    O    0.76037   0.15082   0.87915   1.000
    O882    O    0.72347   0.26639   0.92475   1.000
    O883    O    0.70127   0.15835   0.92475   1.000
    O884    O    0.04477   0.56019   0.89985   1.000
    O885    O    0.35508   0.83967   0.89985   1.000
    O886    O    0.09937   0.61101   0.90616   1.000
    O887    O    0.30678   0.79515   0.90616   1.000
    O888    O    0.48962   0.86877   0.89045   1.000
    O889    O    0.52870   0.89590   0.90000   1.000
    O890    O    0.90082   0.52167   0.89045   1.000
    O891    O    0.87130   0.50410   0.90000   1.000
    O892    O    0.41842   0.99352   0.88960   1.000
    O893    O    0.39167   0.97922   0.90445   1.000
    O894    O    0.97118   0.39607   0.88960   1.000
    O895    O    0.01278   0.42523   0.90445   1.000
    O896    O    0.85871   0.27349   0.92618   1.000
    O897    O    0.56747   0.15268   0.92618   1.000
    O898    O    0.94849   0.43305   0.94549   1.000
    O899    O    0.49699   0.01243   0.94549   1.000
    O900    O    0.90653   0.32883   0.93032   1.000
    O901    O    0.52378   0.10148   0.93032   1.000
    O902    O    0.77715   0.22841   0.93670   1.000
    O903    O    0.65954   0.20828   0.93670   1.000
    O904    O    0.02349   0.59732   0.91479   1.000
    O905    O    0.39129   0.81747   0.91479   1.000
    O906    O    0.17523   0.77078   0.91245   1.000
    O907    O    0.14607   0.75648   0.92490   1.000
    O908    O    0.23722   0.64167   0.91245   1.000
    O909    O    0.27882   0.66842   0.92490   1.000
    O910    O    0.07883   0.64852   0.92231   1.000
    O911    O    0.34347   0.77378   0.92231   1.000
    O912    O    0.54873   0.97347   0.95709   1.000
    O913    O    0.90835   0.48361   0.95709   1.000
    O914    O    0.62500   0.04590   0.92090   1.000
    O915    O    0.66865   0.05916   0.92644   1.000
    O916    O    0.64827   0.10457   0.94970   1.000
    O917    O    0.79590   0.37500   0.92090   1.000
    O918    O    0.75778   0.36728   0.92644   1.000
    O919    O    0.80143   0.34513   0.94970   1.000
    O920    O    0.80749   0.42343   0.93314   1.000
    O921    O    0.85457   0.40487   0.95630   1.000
    O922    O    0.62566   0.00972   0.93314   1.000
    O923    O    0.60173   0.05143   0.95630   1.000
    O924    O    0.35578   0.81763   0.92765   1.000
    O925    O    0.07187   0.61002   0.92765   1.000
    O926    O    0.89422   0.32187   0.96185   1.000
    O927    O    0.85085   0.31875   0.97060   1.000
    O928    O    0.56763   0.13998   0.96185   1.000
    O929    O    0.61975   0.15185   0.97060   1.000
    O930    O    0.57288   0.09823   0.97635   1.000
    O931    O    0.90347   0.37812   0.97635   1.000
    O932    O    0.80078   0.30809   0.97845   1.000
    O933    O    0.67767   0.17035   0.97845   1.000
    O934    O    0.57233   0.05078   0.99269   1.000
    O935    O    0.92035   0.44190   0.99269   1.000
    O936    O    0.98789   0.51210   0.00000   1.000
    O937    O    0.51211   0.98789   0.00000   1.000
    O938    O    0.26211   0.76210   0.02421   1.000
    O939    O    0.73790   0.23789   0.97579   1.000
    O940    O    0.76211   0.73789   0.50000   1.000
    O941    O    0.23790   0.26211   0.50000   1.000
    O942    O    0.48789   0.48789   0.47579   1.000
    O943    O    0.01210   0.01210   0.52421   1.000
loop_
    _geom_bond_atom_site_label_1
    _geom_bond_atom_site_label_2
    _geom_bond_distance
    _geom_bond_site_symmetry_2
    _ccdc_geom_bond_type
    C0     O432      1.02854      .   S
    C147   O432      1.02854      .   S
    C0     O433      1.02050      .   S
    C204   O433      1.02050      .   S
    C0     O434      1.02724      .   S
    C207   O434      1.02724      .   S
    C0     O435      1.02261  1_454   S
    C16    O435      1.02261      .   S
    C0     O436      1.02213  1_554   S
    C314   O436      1.02213      .   S
    C162   O437      1.02854      .   S
    C66    O437      1.02854      .   S
    C162   O438      1.02050      .   S
    C42    O438      1.02050      .   S
    C162   O439      1.02724  1_565   S
    C45    O439      1.02724      .   S
    C162   O440      1.02261  1_554   S
    C178   O440      1.02261      .   S
    C162   O441      1.02213  1_554   S
    C341   O441      1.02213      .   S
    C46    O442      0.56996  1_554   S
    C32    O442      0.56996      .   S
    C208   O443      0.56997  1_554   S
    C194   O443      0.56997      .   S
    C66    O444      0.74293      .   S
    C60    O444      0.74293      .   S
    C66    O445      0.74648      .   S
    C65    O445      0.74648      .   S
    C66    O446      0.74556  1_554   S
    C59    O446      0.74556      .   S
    C147   O447      0.74293      .   S
    C141   O447      0.74293      .   S
    C147   O448      0.74647      .   S
    C146   O448      0.74647      .   S
    C147   O449      0.74556  1_554   S
    C140   O449      0.74556      .   S
    C130   O450      0.56999  1_554   S
    C114   O450      0.56999      .   S
    C103   O451      0.56999  1_554   S
    C87    O451      0.56999      .   S
    C12    O452      1.02854      .   S
    C135   O452      1.02854      .   S
    C12    O453      0.74556      .   S
    C5     O453      0.74556      .   S
    C12    O454      0.74648      .   S
    C11    O454      0.74648      .   S
    C12    O455      0.74292  1_554   S
    C6     O455      0.74292      .   S
    C174   O456      1.02854      .   S
    C54    O456      1.02854      .   S
    C174   O457      0.74556      .   S
    C167   O457      0.74556      .   S
    C174   O458      0.74647      .   S
    C173   O458      0.74647      .   S
    C174   O459      0.74292  1_554   S
    C168   O459      0.74292      .   S
    C54    O460      1.02261      .   S
    C70    O460      1.02261      .   S
    C54    O461      1.02050      .   S
    C150   O461      1.02050      .   S
    C54    O462      1.02213  1_554   S
    C233   O462      1.02213      .   S
    C54    O463      1.02724  1_554   S
    C153   O463      1.02724      .   S
    C135   O464      1.02261      .   S
    C151   O464      1.02261      .   S
    C135   O465      1.02050      .   S
    C69    O465      1.02050      .   S
    C135   O466      1.02213  1_554   S
    C395   O466      1.02213      .   S
    C135   O467      1.02724  1_554   S
    C72    O467      1.02724      .   S
    C60    O468      0.77020      .   S
    C167   O468      0.77020      .   S
    C60    O469      0.57001      .   S
    C75    O469      0.57001  1_545   S
    C60    O470      0.56999      .   S
    C76    O470      0.56999  1_556   S
    C141   O471      0.77020      .   S
    C5     O471      0.77020      .   S
    C141   O472      0.57001      .   S
    C156   O472      0.57001      .   S
    C141   O473      0.56999      .   S
    C157   O473      0.56999  1_556   S
    C5     O474      0.57001      .   S
    C20    O474      0.57001      .   S
    C5     O475      0.56997      .   S
    C19    O475      0.56997  1_556   S
    C167   O476      0.57001      .   S
    C182   O476      0.57001      .   S
    C167   O477      0.56996      .   S
    C181   O477      0.56996  1_556   S
    C126   O478      0.63113      .   S
    C409   O478      0.63113      .   S
    C126   O479      1.02724      .   S
    C81    O479      1.02724  1_556   S
    C99    O480      0.63113      .   S
    C247   O480      0.63113      .   S
    C99    O481      1.02724      .   S
    C108   O481      1.02724  1_556   S
    C79    O482      0.57004      .   S
    C65    O482      0.57004      .   S
    C160   O483      0.56999      .   S
    C146   O483      0.56999      .   S
    C188   O484      0.56997      .   S
    C173   O484      0.56997      .   S
    C26    O485      0.57007      .   S
    C11    O485      0.57007      .   S
    C33    O486      0.77020      .   S
    C113   O486      0.77020      .   S
    C33    O487      0.57001      .   S
    C48    O487      0.57001      .   S
    C33    O488      0.56999      .   S
    C49    O488      0.56999      .   S
    C33    O489      0.74292      .   S
    C39    O489      0.74292  1_556   S
    C195   O490      0.77020      .   S
    C86    O490      0.77020      .   S
    C195   O491      0.57001      .   S
    C210   O491      0.57001      .   S
    C195   O492      0.56999      .   S
    C211   O492      0.56999      .   S
    C195   O493      0.74292      .   S
    C201   O493      0.74292  1_556   S
    C113   O494      0.57001      .   S
    C128   O494      0.57001      .   S
    C113   O495      0.57005      .   S
    C127   O495      0.57005      .   S
    C113   O496      0.74556      .   S
    C120   O496      0.74556  1_556   S
    C86    O497      0.57001      .   S
    C101   O497      0.57001      .   S
    C86    O498      0.56999      .   S
    C100   O498      0.56999      .   S
    C86    O499      0.74556      .   S
    C93    O499      0.74556  1_556   S
    C368   O500      0.62881      .   S
    C355   O500      0.62881      .   S
    C368   O501      1.02213  1_455   S
    C189   O501      1.02213  1_556   S
    C287   O502      0.62882      .   S
    C274   O502      0.62882      .   S
    C287   O503      1.02213      .   S
    C27    O503      1.02213  1_556   S
    C65    O504      0.77142      .   S
    C173   O504      0.77142      .   S
    C65    O505      0.56999      .   S
    C80    O505      0.56999      .   S
    C146   O506      0.77142      .   S
    C11    O506      0.77142      .   S
    C146   O507      0.56997      .   S
    C161   O507      0.56997      .   S
    C422   O508      0.62881      .   S
    C409   O508      0.62881      .   S
    C422   O509      1.02213      .   S
    C108   O509      1.02213  1_556   S
    C260   O510      0.62882      .   S
    C247   O510      0.62882      .   S
    C260   O511      1.02213      .   S
    C81    O511      1.02213  1_556   S
    C173   O512      0.56999      .   S
    C187   O512      0.56999      .   S
    C11    O513      0.56999      .   S
    C25    O513      0.56999      .   S
    C204   O514      0.62094  1_455   S
    C192   O514      0.62094      .   S
    C42    O515      0.62094      .   S
    C30    O515      0.62094      .   S
    C409   O516      0.74965      .   S
    C406   O516      0.74965      .   S
    C247   O517      0.74965      .   S
    C244   O517      0.74965      .   S
    C205   O518      0.63081      .   S
    C192   O518      0.63081      .   S
    C205   O519      1.02261      .   S
    C189   O519      1.02261  1_556   S
    C43    O520      0.63081      .   S
    C30    O520      0.63081  1_565   S
    C43    O521      1.02261      .   S
    C27    O521      1.02261  1_556   S
    C70    O522      0.63081      .   S
    C57    O522      0.63081      .   S
    C151   O523      0.63081      .   S
    C138   O523      0.63081      .   S
    C45    O524      0.63113      .   S
    C274   O524      0.63113      .   S
    C207   O525      0.63113      .   S
    C355   O525      0.63113      .   S
    C355   O526      0.74965      .   S
    C352   O526      0.74965      .   S
    C274   O527      0.74965      .   S
    C271   O527      0.74965      .   S
    C192   O528      0.75478      .   S
    C191   O528      0.75478      .   S
    C30    O529      0.75478      .   S
    C29    O529      0.75478      .   S
    C69    O530      0.62094      .   S
    C57    O530      0.62094      .   S
    C150   O531      0.62094      .   S
    C138   O531      0.62094      .   S
    C122   O532      0.86777      .   S
    C118   O532      0.86777      .   S
    C95    O533      0.86778  1_455   S
    C91    O533      0.86778      .   S
    C294   O534      0.56995      .   S
    C278   O534      0.56995      .   S
    C375   O535      0.56996      .   S
    C359   O535      0.56996      .   S
    C57    O536      0.75478      .   S
    C56    O536      0.75478      .   S
    C138   O537      0.75478      .   S
    C137   O537      0.75478      .   S
    C337   O538      0.87828      .   S
    C198   O538      0.87828      .   S
    C310   O539      0.87828      .   S
    C36    O539      0.87828      .   S
    C428   O540      0.56994      .   S
    C412   O540      0.56994      .   S
    C266   O541      0.57003      .   S
    C250   O541      0.57003      .   S
    C406   O542      0.69648      .   S
    C118   O542      0.69648      .   S
    C406   O543      0.69521      .   S
    C413   O543      0.69521      .   S
    C244   O544      0.69648      .   S
    C91    O544      0.69648      .   S
    C244   O545      0.69521      .   S
    C251   O545      0.69521      .   S
    C352   O546      0.69521      .   S
    C359   O546      0.69521      .   S
    C352   O547      0.69648      .   S
    C199   O547      0.69648      .   S
    C271   O548      0.69521      .   S
    C278   O548      0.69521      .   S
    C271   O549      0.69648      .   S
    C37    O549      0.69648      .   S
    C359   O550      0.68944      .   S
    C360   O550      0.68944      .   S
    C278   O551      0.68944      .   S
    C279   O551      0.68944      .   S
    C118   O552      0.68707      .   S
    C115   O552      0.68707      .   S
    C91    O553      0.68707  1_655   S
    C88    O553      0.68707      .   S
    C191   O554      0.68827      .   S
    C198   O554      0.68827      .   S
    C191   O555      0.69725  1_655   S
    C331   O555      0.69725      .   S
    C29    O556      0.68827      .   S
    C36    O556      0.68827  1_545   S
    C29    O557      0.69725      .   S
    C304   O557      0.69725      .   S
    C267   O558      0.56995      .   S
    C251   O558      0.56995      .   S
    C429   O559      0.56996      .   S
    C413   O559      0.56996      .   S
    C137   O560      0.69725      .   S
    C412   O560      0.69725      .   S
    C137   O561      0.68827      .   S
    C144   O561      0.68827      .   S
    C56    O562      0.69725      .   S
    C250   O562      0.69725      .   S
    C56    O563      0.68827      .   S
    C63    O563      0.68827  1_545   S
    C412   O564      0.68707      .   S
    C415   O564      0.68707      .   S
    C250   O565      0.68707      .   S
    C253   O565      0.68707  1_545   S
    C198   O566      0.68944      .   S
    C197   O566      0.68944      .   S
    C36    O567      0.68944      .   S
    C35    O567      0.68944      .   S
    C251   O568      0.68944      .   S
    C252   O568      0.68944      .   S
    C413   O569      0.68944      .   S
    C414   O569      0.68944      .   S
    C320   O570      0.57000      .   S
    C304   O570      0.57000      .   S
    C347   O571      0.57003      .   S
    C331   O571      0.57003      .   S
    C40    O572      0.87828      .   S
    C279   O572      0.87828      .   S
    C202   O573      0.87828      .   S
    C360   O573      0.87828      .   S
    C199   O574      0.86778      .   S
    C203   O574      0.86778      .   S
    C199   O575      0.68707      .   S
    C196   O575      0.68707      .   S
    C37    O576      0.86778      .   S
    C41    O576      0.86778      .   S
    C37    O577      0.68707      .   S
    C34    O577      0.68707      .   S
    C279   O578      0.68827      .   S
    C272   O578      0.68827      .   S
    C360   O579      0.68827      .   S
    C353   O579      0.68827      .   S
    C331   O580      0.68707      .   S
    C334   O580      0.68707      .   S
    C304   O581      0.68707      .   S
    C307   O581      0.68707      .   S
    C115   O582      0.57003      .   S
    C131   O582      0.57003      .   S
    C115   O583      0.69725      .   S
    C407   O583      0.69725      .   S
    C88    O584      0.57000      .   S
    C104   O584      0.57000      .   S
    C88    O585      0.69725      .   S
    C245   O585      0.69725      .   S
    C419   O586      0.86778      .   S
    C415   O586      0.86778      .   S
    C257   O587      0.86778  1_565   S
    C253   O587      0.86778      .   S
    C144   O588      0.87828      .   S
    C418   O588      0.87828      .   S
    C144   O589      0.68944      .   S
    C143   O589      0.68944      .   S
    C63    O590      0.87828      .   S
    C256   O590      0.87828      .   S
    C63    O591      0.68944      .   S
    C62    O591      0.68944      .   S
    C415   O592      0.69648      .   S
    C136   O592      0.69648      .   S
    C253   O593      0.69648      .   S
    C55    O593      0.69648      .   S
    C35    O594      0.56995      .   S
    C51    O594      0.56995      .   S
    C35    O595      0.69521      .   S
    C28    O595      0.69521      .   S
    C197   O596      0.56996      .   S
    C213   O596      0.56996      .   S
    C197   O597      0.69521      .   S
    C190   O597      0.69521  1_455   S
    C252   O598      0.68827  1_655   S
    C245   O598      0.68827      .   S
    C252   O599      0.87828      .   S
    C94    O599      0.87828      .   S
    C414   O600      0.68827      .   S
    C407   O600      0.68827      .   S
    C414   O601      0.87828      .   S
    C121   O601      0.87828      .   S
    C34    O602      0.69725      .   S
    C272   O602      0.69725      .   S
    C34    O603      0.57003      .   S
    C50    O603      0.57003      .   S
    C196   O604      0.69725      .   S
    C353   O604      0.69725      .   S
    C196   O605      0.56994      .   S
    C212   O605      0.56994      .   S
    C272   O606      0.75478      .   S
    C273   O606      0.75478      .   S
    C353   O607      0.75478      .   S
    C354   O607      0.75478      .   S
    C245   O608      0.75478      .   S
    C246   O608      0.75478      .   S
    C407   O609      0.75478      .   S
    C408   O609      0.75478      .   S
    C307   O610      0.69648      .   S
    C28    O610      0.69648  1_545   S
    C307   O611      0.86778      .   S
    C311   O611      0.86778      .   S
    C334   O612      0.69648      .   S
    C190   O612      0.69648      .   S
    C334   O613      0.86777      .   S
    C338   O613      0.86777      .   S
    C62    O614      0.69521      .   S
    C55    O614      0.69521      .   S
    C62    O615      0.56995      .   S
    C78    O615      0.56995      .   S
    C143   O616      0.69521      .   S
    C136   O616      0.69521      .   S
    C143   O617      0.56996      .   S
    C159   O617      0.56996      .   S
    C136   O618      0.74965      .   S
    C139   O618      0.74965      .   S
    C55    O619      0.74965      .   S
    C58    O619      0.74965      .   S
    C28    O620      0.74965      .   S
    C31    O620      0.74965      .   S
    C190   O621      0.74965      .   S
    C193   O621      0.74965      .   S
    C241   O622      0.56999      .   S
    C227   O622      0.56999      .   S
    C403   O623      0.56999      .   S
    C389   O623      0.56999      .   S
    C296   O624      0.56999      .   S
    C281   O624      0.56999      .   S
    C377   O625      0.56997      .   S
    C362   O625      0.56997      .   S
    C354   O626      0.62094      .   S
    C366   O626      0.62094      .   S
    C354   O627      0.63081      .   S
    C367   O627      0.63081      .   S
    C273   O628      0.62094      .   S
    C285   O628      0.62094      .   S
    C273   O629      0.63081      .   S
    C286   O629      0.63081      .   S
    C366   O630      1.02050      .   S
    C270   O630      1.02050      .   S
    C285   O631      1.02050      .   S
    C351   O631      1.02050      .   S
    C316   O632      0.56999      .   S
    C302   O632      0.56999      .   S
    C343   O633      0.57005      .   S
    C329   O633      0.57005      .   S
    C265   O634      0.56999      .   S
    C249   O634      0.56999      .   S
    C427   O635      0.56999      .   S
    C411   O635      0.56999      .   S
    C408   O636      0.63081      .   S
    C421   O636      0.63081      .   S
    C408   O637      0.62094      .   S
    C420   O637      0.62094      .   S
    C246   O638      0.63081      .   S
    C259   O638      0.63081      .   S
    C246   O639      0.62094      .   S
    C258   O639      0.62094      .   S
    C58    O640      0.63113      .   S
    C261   O640      0.63113      .   S
    C58    O641      0.62882      .   S
    C71    O641      0.62882      .   S
    C139   O642      0.63113      .   S
    C423   O642      0.63113      .   S
    C139   O643      0.62881      .   S
    C152   O643      0.62881      .   S
    C236   O644      0.57001      .   S
    C221   O644      0.57001      .   S
    C398   O645      0.57001      .   S
    C383   O645      0.57001      .   S
    C423   O646      1.02724      .   S
    C216   O646      1.02724      .   S
    C261   O647      1.02724      .   S
    C378   O647      1.02724      .   S
    C291   O648      0.57001      .   S
    C276   O648      0.57001      .   S
    C372   O649      0.57001      .   S
    C357   O649      0.57001      .   S
    C286   O650      1.02261      .   S
    C270   O650      1.02261      .   S
    C367   O651      1.02261      .   S
    C351   O651      1.02261      .   S
    C259   O652      1.02261      .   S
    C243   O652      1.02261      .   S
    C421   O653      1.02261      .   S
    C405   O653      1.02261      .   S
    C344   O654      0.57001      .   S
    C329   O654      0.57001      .   S
    C317   O655      0.57001      .   S
    C302   O655      0.57001      .   S
    C193   O656      0.62881      .   S
    C206   O656      0.62881      .   S
    C193   O657      0.63113      .   S
    C342   O657      0.63113  1_655   S
    C31    O658      0.62882  1_545   S
    C44    O658      0.62882      .   S
    C31    O659      0.63113      .   S
    C315   O659      0.63113      .   S
    C264   O660      0.57001  1_655   S
    C249   O660      0.57001      .   S
    C426   O661      0.57001      .   S
    C411   O661      0.57001      .   S
    C420   O662      1.02050      .   S
    C216   O662      1.02050      .   S
    C258   O663      1.02050      .   S
    C378   O663      1.02050      .   S
    C227   O664      0.77142      .   S
    C362   O664      0.77142      .   S
    C227   O665      0.57007      .   S
    C242   O665      0.57007      .   S
    C227   O666      0.74648      .   S
    C228   O666      0.74648      .   S
    C389   O667      0.77142      .   S
    C281   O667      0.77142      .   S
    C389   O668      0.56997      .   S
    C404   O668      0.56997      .   S
    C389   O669      0.74647      .   S
    C390   O669      0.74647      .   S
    C44    O670      1.02213      .   S
    C297   O670      1.02213      .   S
    C206   O671      1.02213  1_565   S
    C324   O671      1.02213      .   S
    C362   O672      0.56999      .   S
    C376   O672      0.56999      .   S
    C362   O673      0.74647      .   S
    C363   O673      0.74647      .   S
    C281   O674      0.57004      .   S
    C295   O674      0.57004      .   S
    C281   O675      0.74648      .   S
    C282   O675      0.74648      .   S
    C71    O676      1.02213      .   S
    C243   O676      1.02213      .   S
    C152   O677      1.02213      .   S
    C405   O677      1.02213      .   S
    C302   O678      0.77020      .   S
    C411   O678      0.77020      .   S
    C302   O679      0.74556      .   S
    C309   O679      0.74556      .   S
    C329   O680      0.77020      .   S
    C249   O680      0.77020      .   S
    C329   O681      0.74556      .   S
    C336   O681      0.74556      .   S
    C249   O682      0.74292      .   S
    C255   O682      0.74292      .   S
    C411   O683      0.74292      .   S
    C417   O683      0.74292      .   S
    C315   O684      1.02724      .   S
    C324   O684      1.02724  1_455   S
    C342   O685      1.02724      .   S
    C297   O685      1.02724      .   S
    C221   O686      0.77020      .   S
    C357   O686      0.77020      .   S
    C221   O687      0.74556      .   S
    C228   O687      0.74556      .   S
    C221   O688      0.56997      .   S
    C235   O688      0.56997      .   S
    C383   O689      0.77020      .   S
    C276   O689      0.77020      .   S
    C383   O690      0.74556      .   S
    C390   O690      0.74556      .   S
    C383   O691      0.56996      .   S
    C397   O691      0.56996      .   S
    C276   O692      0.74293      .   S
    C282   O692      0.74293      .   S
    C276   O693      0.56999      .   S
    C292   O693      0.56999      .   S
    C357   O694      0.74293      .   S
    C363   O694      0.74293      .   S
    C357   O695      0.56999      .   S
    C373   O695      0.56999      .   S
    C270   O696      1.02854      .   S
    C390   O696      1.02854      .   S
    C270   O697      1.02724      .   S
    C369   O697      1.02724      .   S
    C270   O698      1.02213      .   S
    C17    O698      1.02213      .   S
    C351   O699      1.02854      .   S
    C228   O699      1.02854      .   S
    C351   O700      1.02724      .   S
    C288   O700      1.02724      .   S
    C351   O701      1.02213      .   S
    C179   O701      1.02213      .   S
    C228   O702      0.74292      .   S
    C222   O702      0.74292      .   S
    C390   O703      0.74292      .   S
    C384   O703      0.74292      .   S
    C319   O704      0.56999      .   S
    C303   O704      0.56999      .   S
    C346   O705      0.56999      .   S
    C330   O705      0.56999      .   S
    C363   O706      1.02854      .   S
    C216   O706      1.02854      .   S
    C363   O707      0.74556      .   S
    C356   O707      0.74556      .   S
    C282   O708      1.02854      .   S
    C378   O708      1.02854      .   S
    C282   O709      0.74556      .   S
    C275   O709      0.74556      .   S
    C424   O710      0.56997      .   S
    C410   O710      0.56997      .   S
    C262   O711      0.56996      .   S
    C248   O711      0.56996      .   S
    C378   O712      1.02213      .   S
    C125   O712      1.02213      .   S
    C378   O713      1.02261      .   S
    C394   O713      1.02261      .   S
    C216   O714      1.02213      .   S
    C98    O714      1.02213      .   S
    C216   O715      1.02261      .   S
    C232   O715      1.02261      .   S
    C243   O716      1.02854      .   S
    C336   O716      1.02854      .   S
    C243   O717      1.02050      .   S
    C393   O717      1.02050      .   S
    C243   O718      1.02724      .   S
    C396   O718      1.02724      .   S
    C405   O719      1.02854      .   S
    C309   O719      1.02854      .   S
    C405   O720      1.02050      .   S
    C231   O720      1.02050      .   S
    C405   O721      1.02724      .   S
    C234   O721      1.02724      .   S
    C309   O722      0.74293      .   S
    C303   O722      0.74293      .   S
    C309   O723      0.74647      .   S
    C308   O723      0.74647      .   S
    C336   O724      0.74293      .   S
    C330   O724      0.74293      .   S
    C336   O725      0.74648      .   S
    C335   O725      0.74648      .   S
    C255   O726      1.02854      .   S
    C324   O726      1.02854      .   S
    C255   O727      0.74556      .   S
    C248   O727      0.74556      .   S
    C255   O728      0.74647      .   S
    C254   O728      0.74647      .   S
    C417   O729      1.02854      .   S
    C297   O729      1.02854      .   S
    C417   O730      0.74556      .   S
    C410   O730      0.74556      .   S
    C417   O731      0.74648      .   S
    C416   O731      0.74648      .   S
    C324   O732      1.02261      .   S
    C340   O732      1.02261      .   S
    C324   O733      1.02050      .   S
    C312   O733      1.02050      .   S
    C297   O734      1.02261  1_565   S
    C313   O734      1.02261      .   S
    C297   O735      1.02050  1_655   S
    C339   O735      1.02050      .   S
    C330   O736      0.77020      .   S
    C248   O736      0.77020      .   S
    C330   O737      0.57001      .   S
    C345   O737      0.57001      .   S
    C303   O738      0.77020      .   S
    C410   O738      0.77020      .   S
    C303   O739      0.57001      .   S
    C318   O739      0.57001      .   S
    C248   O740      0.57001      .   S
    C263   O740      0.57001      .   S
    C410   O741      0.57001      .   S
    C425   O741      0.57001  1_545   S
    C288   O742      0.63113      .   S
    C4     O742      0.63113      .   S
    C369   O743      0.63113      .   S
    C166   O743      0.63113      .   S
    C322   O744      0.56999      .   S
    C308   O744      0.56999      .   S
    C349   O745      0.57004      .   S
    C335   O745      0.57004      .   S
    C269   O746      0.56997      .   S
    C254   O746      0.56997      .   S
    C431   O747      0.57007  1_455   S
    C416   O747      0.57007      .   S
    C384   O748      0.77020      .   S
    C275   O748      0.77020      .   S
    C384   O749      0.57001      .   S
    C399   O749      0.57001      .   S
    C384   O750      0.56999      .   S
    C400   O750      0.56999      .   S
    C222   O751      0.77020      .   S
    C356   O751      0.77020      .   S
    C222   O752      0.57001      .   S
    C237   O752      0.57001      .   S
    C222   O753      0.56999      .   S
    C238   O753      0.56999      .   S
    C275   O754      0.57001      .   S
    C290   O754      0.57001      .   S
    C275   O755      0.57005      .   S
    C289   O755      0.57005      .   S
    C356   O756      0.57001      .   S
    C371   O756      0.57001      .   S
    C356   O757      0.56999      .   S
    C370   O757      0.56999      .   S
    C125   O758      0.62882      .   S
    C112   O758      0.62882      .   S
    C98    O759      0.62881      .   S
    C85    O759      0.62881      .   S
    C308   O760      0.77142      .   S
    C416   O760      0.77142      .   S
    C308   O761      0.56997      .   S
    C323   O761      0.56997      .   S
    C335   O762      0.77142      .   S
    C254   O762      0.77142      .   S
    C335   O763      0.56999      .   S
    C350   O763      0.56999      .   S
    C17    O764      0.62881      .   S
    C4     O764      0.62881      .   S
    C179   O765      0.62882      .   S
    C166   O765      0.62882      .   S
    C416   O766      0.56999      .   S
    C430   O766      0.56999  1_455   S
    C254   O767      0.56999      .   S
    C268   O767      0.56999      .   S
    C231   O768      0.62094      .   S
    C219   O768      0.62094      .   S
    C393   O769      0.62094      .   S
    C381   O769      0.62094      .   S
    C4     O770      0.74965      .   S
    C1     O770      0.74965      .   S
    C166   O771      0.74965      .   S
    C163   O771      0.74965      .   S
    C394   O772      0.63081      .   S
    C381   O772      0.63081      .   S
    C232   O773      0.63081      .   S
    C219   O773      0.63081      .   S
    C313   O774      0.63081      .   S
    C300   O774      0.63081  1_455   S
    C340   O775      0.63081      .   S
    C327   O775      0.63081      .   S
    C396   O776      0.63113      .   S
    C112   O776      0.63113      .   S
    C234   O777      0.63113      .   S
    C85    O777      0.63113      .   S
    C85    O778      0.74965      .   S
    C82    O778      0.74965      .   S
    C112   O779      0.74965      .   S
    C109   O779      0.74965      .   S
    C381   O780      0.75478      .   S
    C380   O780      0.75478      .   S
    C219   O781      0.75478      .   S
    C218   O781      0.75478      .   S
    C339   O782      0.62094  1_565   S
    C327   O782      0.62094      .   S
    C312   O783      0.62094      .   S
    C300   O783      0.62094      .   S
    C365   O784      0.86778      .   S
    C361   O784      0.86778      .   S
    C284   O785      0.86777      .   S
    C280   O785      0.86777      .   S
    C105   O786      0.56996      .   S
    C89    O786      0.56996      .   S
    C132   O787      0.56995      .   S
    C116   O787      0.56995      .   S
    C300   O788      0.75478      .   S
    C299   O788      0.75478      .   S
    C327   O789      0.75478      .   S
    C326   O789      0.75478      .   S
    C67    O790      0.87828      .   S
    C225   O790      0.87828      .   S
    C148   O791      0.87828      .   S
    C387   O791      0.87828      .   S
    C23    O792      0.56994      .   S
    C7     O792      0.56994      .   S
    C185   O793      0.57003      .   S
    C169   O793      0.57003      .   S
    C1     O794      0.69648      .   S
    C280   O794      0.69648      .   S
    C1     O795      0.69521      .   S
    C8     O795      0.69521      .   S
    C163   O796      0.69648      .   S
    C361   O796      0.69648      .   S
    C163   O797      0.69521      .   S
    C170   O797      0.69521      .   S
    C82    O798      0.69521      .   S
    C89    O798      0.69521      .   S
    C82    O799      0.69648      .   S
    C226   O799      0.69648      .   S
    C109   O800      0.69521      .   S
    C116   O800      0.69521      .   S
    C109   O801      0.69648      .   S
    C388   O801      0.69648      .   S
    C89    O802      0.68944  1_565   S
    C90    O802      0.68944      .   S
    C116   O803      0.68944      .   S
    C117   O803      0.68944      .   S
    C361   O804      0.68707      .   S
    C358   O804      0.68707      .   S
    C280   O805      0.68707      .   S
    C277   O805      0.68707      .   S
    C218   O806      0.68827      .   S
    C225   O806      0.68827      .   S
    C218   O807      0.69725      .   S
    C61    O807      0.69725  1_455   S
    C380   O808      0.68827      .   S
    C387   O808      0.68827      .   S
    C380   O809      0.69725      .   S
    C142   O809      0.69725      .   S
    C186   O810      0.56995      .   S
    C170   O810      0.56995      .   S
    C24    O811      0.56996      .   S
    C8     O811      0.56996      .   S
    C326   O812      0.69725  1_545   S
    C169   O812      0.69725      .   S
    C326   O813      0.68827      .   S
    C333   O813      0.68827      .   S
    C299   O814      0.69725      .   S
    C7     O814      0.69725      .   S
    C299   O815      0.68827      .   S
    C306   O815      0.68827  1_655   S
    C7     O816      0.68707      .   S
    C10    O816      0.68707      .   S
    C169   O817      0.68707      .   S
    C172   O817      0.68707      .   S
    C225   O818      0.68944      .   S
    C224   O818      0.68944  1_455   S
    C387   O819      0.68944      .   S
    C386   O819      0.68944      .   S
    C170   O820      0.68944      .   S
    C171   O820      0.68944      .   S
    C8     O821      0.68944      .   S
    C9     O821      0.68944      .   S
    C77    O822      0.57003      .   S
    C61    O822      0.57003  1_455   S
    C158   O823      0.57000      .   S
    C142   O823      0.57000      .   S
    C229   O824      0.87828      .   S
    C90    O824      0.87828      .   S
    C391   O825      0.87828      .   S
    C117   O825      0.87828      .   S
    C226   O826      0.86778      .   S
    C230   O826      0.86778      .   S
    C226   O827      0.68707      .   S
    C223   O827      0.68707      .   S
    C388   O828      0.86778      .   S
    C392   O828      0.86778      .   S
    C388   O829      0.68707      .   S
    C385   O829      0.68707      .   S
    C90    O830      0.68827      .   S
    C83    O830      0.68827      .   S
    C117   O831      0.68827      .   S
    C110   O831      0.68827      .   S
    C142   O832      0.68707      .   S
    C145   O832      0.68707      .   S
    C61    O833      0.68707      .   S
    C64    O833      0.68707      .   S
    C358   O834      0.57000      .   S
    C374   O834      0.57000      .   S
    C358   O835      0.69725      .   S
    C164   O835      0.69725      .   S
    C277   O836      0.57003      .   S
    C293   O836      0.57003      .   S
    C277   O837      0.69725      .   S
    C2     O837      0.69725      .   S
    C176   O838      0.86778      .   S
    C172   O838      0.86778      .   S
    C14    O839      0.86778      .   S
    C10    O839      0.86778      .   S
    C333   O840      0.87828      .   S
    C175   O840      0.87828      .   S
    C333   O841      0.68944      .   S
    C332   O841      0.68944      .   S
    C306   O842      0.87828      .   S
    C13    O842      0.87828      .   S
    C306   O843      0.68944      .   S
    C305   O843      0.68944      .   S
    C172   O844      0.69648      .   S
    C325   O844      0.69648      .   S
    C10    O845      0.69648      .   S
    C298   O845      0.69648  1_655   S
    C224   O846      0.56996      .   S
    C240   O846      0.56996      .   S
    C224   O847      0.69521      .   S
    C217   O847      0.69521      .   S
    C386   O848      0.56995      .   S
    C402   O848      0.56995      .   S
    C386   O849      0.69521      .   S
    C379   O849      0.69521      .   S
    C9     O850      0.68827      .   S
    C2     O850      0.68827      .   S
    C9     O851      0.87828      .   S
    C283   O851      0.87828      .   S
    C171   O852      0.68827      .   S
    C164   O852      0.68827      .   S
    C171   O853      0.87828      .   S
    C364   O853      0.87828      .   S
    C385   O854      0.69725      .   S
    C110   O854      0.69725      .   S
    C385   O855      0.57003      .   S
    C401   O855      0.57003      .   S
    C223   O856      0.69725  1_565   S
    C83    O856      0.69725      .   S
    C223   O857      0.56994  1_565   S
    C239   O857      0.56994      .   S
    C83    O858      0.75478      .   S
    C84    O858      0.75478      .   S
    C110   O859      0.75478      .   S
    C111   O859      0.75478      .   S
    C164   O860      0.75478      .   S
    C165   O860      0.75478      .   S
    C2     O861      0.75478      .   S
    C3     O861      0.75478      .   S
    C64    O862      0.69648      .   S
    C217   O862      0.69648      .   S
    C64    O863      0.86777      .   S
    C68    O863      0.86777      .   S
    C145   O864      0.69648      .   S
    C379   O864      0.69648      .   S
    C145   O865      0.86778      .   S
    C149   O865      0.86778      .   S
    C305   O866      0.69521      .   S
    C298   O866      0.69521      .   S
    C305   O867      0.56996      .   S
    C321   O867      0.56996      .   S
    C332   O868      0.69521      .   S
    C325   O868      0.69521  1_565   S
    C332   O869      0.56995      .   S
    C348   O869      0.56995      .   S
    C298   O870      0.74965      .   S
    C301   O870      0.74965      .   S
    C325   O871      0.74965      .   S
    C328   O871      0.74965      .   S
    C379   O872      0.74965      .   S
    C382   O872      0.74965      .   S
    C217   O873      0.74965      .   S
    C220   O873      0.74965      .   S
    C52    O874      0.56999      .   S
    C38    O874      0.56999      .   S
    C214   O875      0.56999      .   S
    C200   O875      0.56999      .   S
    C107   O876      0.56997      .   S
    C92    O876      0.56997      .   S
    C134   O877      0.56999  1_565   S
    C119   O877      0.56999      .   S
    C111   O878      0.62094      .   S
    C123   O878      0.62094      .   S
    C111   O879      0.63081      .   S
    C124   O879      0.63081      .   S
    C84    O880      0.62094      .   S
    C96    O880      0.62094      .   S
    C84    O881      0.63081      .   S
    C97    O881      0.63081      .   S
    C123   O882      1.02050      .   S
    C81    O882      1.02050      .   S
    C96    O883      1.02050      .   S
    C108   O883      1.02050      .   S
    C154   O884      0.56999      .   S
    C140   O884      0.56999      .   S
    C73    O885      0.57005      .   S
    C59    O885      0.57005      .   S
    C22    O886      0.56999      .   S
    C6     O886      0.56999      .   S
    C184   O887      0.56999      .   S
    C168   O887      0.56999      .   S
    C165   O888      0.63081      .   S
    C178   O888      0.63081      .   S
    C165   O889      0.62094      .   S
    C177   O889      0.62094      .   S
    C3     O890      0.63081      .   S
    C16    O890      0.63081      .   S
    C3     O891      0.62094      .   S
    C15    O891      0.62094      .   S
    C328   O892      0.63113      .   S
    C180   O892      0.63113  1_545   S
    C328   O893      0.62882      .   S
    C341   O893      0.62882      .   S
    C301   O894      0.63113      .   S
    C18    O894      0.63113      .   S
    C301   O895      0.62881  1_655   S
    C314   O895      0.62881      .   S
    C209   O896      0.57001      .   S
    C194   O896      0.57001      .   S
    C47    O897      0.57001      .   S
    C32    O897      0.57001      .   S
    C18    O898      1.02724      .   S
    C189   O898      1.02724      .   S
    C180   O899      1.02724      .   S
    C27    O899      1.02724      .   S
    C102   O900      0.57001      .   S
    C87    O900      0.57001      .   S
    C129   O901      0.57001      .   S
    C114   O901      0.57001      .   S
    C97    O902      1.02261      .   S
    C81    O902      1.02261      .   S
    C124   O903      1.02261      .   S
    C108   O903      1.02261      .   S
    C155   O904      0.57001  1_655   S
    C140   O904      0.57001      .   S
    C74    O905      0.57001      .   S
    C59    O905      0.57001      .   S
    C220   O906      0.62881      .   S
    C233   O906      0.62881      .   S
    C220   O907      0.63113      .   S
    C72    O907      0.63113      .   S
    C382   O908      0.62882      .   S
    C395   O908      0.62882      .   S
    C382   O909      0.63113      .   S
    C153   O909      0.63113      .   S
    C21    O910      0.57001      .   S
    C6     O910      0.57001      .   S
    C183   O911      0.57001      .   S
    C168   O911      0.57001      .   S
    C177   O912      1.02050      .   S
    C27    O912      1.02050  1_545   S
    C15    O913      1.02050      .   S
    C189   O913      1.02050      .   S
    C38    O914      0.77142      .   S
    C119   O914      0.77142      .   S
    C38    O915      0.56997      .   S
    C53    O915      0.56997      .   S
    C38    O916      0.74647      .   S
    C39    O916      0.74647      .   S
    C200   O917      0.77142      .   S
    C92    O917      0.77142      .   S
    C200   O918      0.57007      .   S
    C215   O918      0.57007      .   S
    C200   O919      0.74648      .   S
    C201   O919      0.74648      .   S
    C92    O920      0.56999      .   S
    C106   O920      0.56999      .   S
    C92    O921      0.74647      .   S
    C93    O921      0.74647      .   S
    C119   O922      0.57004      .   S
    C133   O922      0.57004  1_565   S
    C119   O923      0.74648      .   S
    C120   O923      0.74648      .   S
    C59    O924      0.77020      .   S
    C168   O924      0.77020      .   S
    C140   O925      0.77020      .   S
    C6     O925      0.77020      .   S
    C194   O926      0.77020      .   S
    C87    O926      0.77020      .   S
    C194   O927      0.74556      .   S
    C201   O927      0.74556      .   S
    C32    O928      0.77020      .   S
    C114   O928      0.77020      .   S
    C32    O929      0.74556      .   S
    C39    O929      0.74556      .   S
    C114   O930      0.74293      .   S
    C120   O930      0.74293      .   S
    C87    O931      0.74293      .   S
    C93    O931      0.74293      .   S
    C81    O932      1.02854      .   S
    C201   O932      1.02854      .   S
    C108   O933      1.02854      .   S
    C39    O933      1.02854      .   S
    C120   O934      1.02854      .   S
    C27    O934      1.02854      .   S
    C93    O935      1.02854      .   S
    C189   O935      1.02854      .   S
    C0     O936      1.49609  1_455   S
    C189   O936      1.49609  1_556   S
    C27    O937      1.49609  1_546   S
    C162   O937      1.49609      .   S
    C54    O938      1.49609      .   S
    C135   O938      1.49609      .   S
    C81    O939      1.49609      .   S
    C108   O939      1.49609      .   S
    C216   O940      1.49609      .   S
    C405   O940      1.49609      .   S
    C243   O941      1.49609      .   S
    C378   O941      1.49609      .   S
    C270   O942      1.49609      .   S
    C351   O942      1.49609      .   S
    C297   O943      1.49609  1_665   S
    C324   O943      1.49609      .   S
