# CIF file generated by openbabel 2.4.90, see http://openbabel.sf.net
data_I
_chemical_name_common ''
_cell_length_a 24.7318
_cell_length_b 24.7318
_cell_length_c 24.7318
_cell_angle_alpha 127.653
_cell_angle_beta 127.653
_cell_angle_gamma 77.1881
_space_group_name_H-M_alt 'P 1'
_space_group_name_Hall 'P 1'
loop_
    _symmetry_equiv_pos_as_xyz
    x,y,z
loop_
    _atom_site_label
    _atom_site_type_symbol
    _atom_site_fract_x
    _atom_site_fract_y
    _atom_site_fract_z
    _atom_site_occupancy
    Zn0     Zn   0.54891   0.02470   0.99627   1.000
    Zn1     Zn   0.02843   0.55264   0.00373   1.000
    Zn2     Zn   0.30264   0.79891   0.02421   1.000
    Zn3     Zn   0.77470   0.27843   0.97579   1.000
    Zn4     Zn   0.70109   0.19736   0.97579   1.000
    Zn5     Zn   0.22157   0.72530   0.02421   1.000
    Zn6     Zn   0.47530   0.95109   0.00373   1.000
    Zn7     Zn   0.94736   0.47157   0.99627   1.000
    Zn8     Zn   0.72157   0.69736   0.49627   1.000
    Zn9     Zn   0.20109   0.22530   0.50373   1.000
    Zn10    Zn   0.44736   0.45109   0.47579   1.000
    Zn11    Zn   0.97530   0.97157   0.52421   1.000
    Zn12    Zn   0.04891   0.05264   0.52421   1.000
    Zn13    Zn   0.52843   0.52470   0.47579   1.000
    Zn14    Zn   0.27470   0.29891   0.49627   1.000
    Zn15    Zn   0.80264   0.77843   0.50373   1.000
loop_
    _geom_bond_atom_site_label_1
    _geom_bond_atom_site_label_2
    _geom_bond_distance
    _geom_bond_site_symmetry_2
    _ccdc_geom_bond_type
    Zn1    Zn7       2.99218  1_454   S
    Zn0    Zn6       2.99218  1_546   S
    Zn2    Zn5       2.99218      .   S
    Zn3    Zn4       2.99218      .   S
    Zn8    Zn15      2.99218      .   S
    Zn9    Zn14      2.99218      .   S
    Zn10   Zn13      2.99218      .   S
    Zn11   Zn12      2.99218  1_665   S
