# CIF file generated by openbabel 2.4.90, see http://openbabel.sf.net
data_I
_chemical_name_common ''
_cell_length_a 24.7318
_cell_length_b 24.7318
_cell_length_c 24.7318
_cell_angle_alpha 127.653
_cell_angle_beta 127.653
_cell_angle_gamma 77.1881
_space_group_name_H-M_alt 'P 1'
_space_group_name_Hall 'P 1'
loop_
    _symmetry_equiv_pos_as_xyz
    x,y,z
loop_
    _atom_site_label
    _atom_site_type_symbol
    _atom_site_fract_x
    _atom_site_fract_y
    _atom_site_fract_z
    _atom_site_occupancy
    N0      N    0.00066   0.26222   0.76212   1.000
    N1      N    0.36005   0.37500   0.48505   1.000
    N2      N    0.73778   0.49990   0.73844   1.000
    N3      N    0.50010   0.23854   0.23788   1.000
    N4      N    0.88995   0.87500   0.51495   1.000
    N5      N    0.76146   0.99934   0.26156   1.000
    N6      N    0.12500   0.63995   0.01495   1.000
    N7      N    0.48854   0.25010   0.73788   1.000
    N8      N    0.74990   0.48778   0.23844   1.000
    N9      N    0.62500   0.11005   0.98505   1.000
    N10     N    0.74934   0.98778   0.73788   1.000
    N11     N    0.98854   0.25066   0.23844   1.000
    N12     N    0.23778   0.49934   0.23788   1.000
    N13     N    0.00010   0.76222   0.26156   1.000
    N14     N    0.86005   0.37500   0.98505   1.000
    N15     N    0.50066   0.73854   0.73844   1.000
    N16     N    0.26146   0.99990   0.76212   1.000
    N17     N    0.38995   0.87500   0.01495   1.000
    N18     N    0.24990   0.01146   0.26212   1.000
    N19     N    0.01222   0.75010   0.76156   1.000
    N20     N    0.24934   0.51146   0.76156   1.000
    N21     N    0.51222   0.75066   0.26212   1.000
    N22     N    0.62500   0.61005   0.48505   1.000
    N23     N    0.12500   0.13995   0.51495   1.000
    Zr24    Zr   0.01210   0.01210   0.52421   1.000
    O25     O    0.96585   0.96028   0.52123   1.000
    O26     O    0.05539   0.06095   0.52123   1.000
    Zr27    Zr   0.51210   0.98789   0.00000   1.000
    O28     O    0.46585   0.94461   0.00557   1.000
    O29     O    0.55539   0.03415   0.99443   1.000
    Zr30    Zr   0.98789   0.51211   0.00000   1.000
    O31     O    0.03972   0.56095   0.00557   1.000
    O32     O    0.93905   0.46028   0.99443   1.000
    Zr33    Zr   0.48789   0.48789   0.47579   1.000
    O34     O    0.43905   0.44461   0.47877   1.000
    O35     O    0.53972   0.53415   0.47877   1.000
    Zr36    Zr   0.76211   0.73789   0.50000   1.000
    O37     O    0.71028   0.68905   0.49443   1.000
    O38     O    0.81095   0.78972   0.50557   1.000
    Zr39    Zr   0.23789   0.26211   0.50000   1.000
    O40     O    0.28415   0.30539   0.49443   1.000
    O41     O    0.19461   0.21585   0.50557   1.000
    Zr42    Zr   0.26211   0.76210   0.02421   1.000
    O43     O    0.21028   0.71585   0.02123   1.000
    O44     O    0.31095   0.80539   0.02123   1.000
    Zr45    Zr   0.73790   0.23789   0.97579   1.000
    O46     O    0.78415   0.28972   0.97877   1.000
    O47     O    0.69461   0.18905   0.97877   1.000
    O48     O    0.43772   0.99064   0.92922   1.000
    O49     O    0.08604   0.00919   0.59496   1.000
    O50     O    0.58604   0.99109   0.07685   1.000
    O51     O    0.93772   0.00850   0.44708   1.000
    O52     O    0.50891   0.91396   0.92315   1.000
    O53     O    0.50936   0.06228   0.07078   1.000
    O54     O    0.18858   0.75936   0.94708   1.000
    O55     O    0.83576   0.74081   0.57685   1.000
    O56     O    0.74109   0.16424   0.90505   1.000
    O57     O    0.74064   0.31142   0.05292   1.000
    O58     O    0.81228   0.24150   0.05292   1.000
    O59     O    0.66396   0.24081   0.90505   1.000
    O60     O    0.25919   0.83604   0.09496   1.000
    O61     O    0.33576   0.75891   0.09496   1.000
    O62     O    0.25850   0.68772   0.94708   1.000
    O63     O    0.91424   0.50919   0.92315   1.000
    O64     O    0.56142   0.49064   0.55292   1.000
    O65     O    0.00936   0.93858   0.44708   1.000
    O66     O    0.00891   0.08576   0.59496   1.000
    O67     O    0.75850   0.81142   0.57078   1.000
    O68     O    0.24064   0.18772   0.42922   1.000
    O69     O    0.16396   0.25891   0.42315   1.000
    O70     O    0.31228   0.25936   0.57078   1.000
    O71     O    0.24109   0.33604   0.57685   1.000
    O72     O    0.49150   0.56228   0.55292   1.000
    O73     O    0.06142   0.50850   0.07078   1.000
    O74     O    0.99081   0.58576   0.07685   1.000
    O75     O    0.99150   0.43858   0.92922   1.000
    O76     O    0.75919   0.66424   0.42315   1.000
    O77     O    0.68858   0.74150   0.42922   1.000
    O78     O    0.41424   0.49109   0.40505   1.000
    O79     O    0.49081   0.41396   0.40505   1.000
loop_
    _geom_bond_atom_site_label_1
    _geom_bond_atom_site_label_2
    _geom_bond_distance
    _geom_bond_site_symmetry_2
    _ccdc_geom_bond_type
    Zr24   O25       1.84100  1_445   S
    N4     O25       2.99912      .   S
    Zr24   O26       1.84101      .   S
    N23    O26       2.99915      .   S
    Zr27   O28       1.84100      .   S
    N17    O28       2.99912      .   S
    Zr27   O29       1.84100  1_564   S
    N9     O29       2.99912      .   S
    Zr30   O31       1.84101  1_655   S
    N6     O31       2.99915      .   S
    Zr30   O32       1.84101  1_554   S
    N14    O32       2.99915      .   S
    Zr33   O34       1.84101      .   S
    N1     O34       2.99915      .   S
    Zr33   O35       1.84100      .   S
    N22    O35       2.99912      .   S
    Zr36   O37       1.84101      .   S
    N22    O37       2.99915      .   S
    Zr36   O38       1.84101      .   S
    N4     O38       2.99915      .   S
    Zr39   O40       1.84100      .   S
    N1     O40       2.99912      .   S
    Zr39   O41       1.84100      .   S
    N23    O41       2.99912      .   S
    Zr42   O43       1.84100      .   S
    N6     O43       2.99912      .   S
    Zr42   O44       1.84101      .   S
    N17    O44       2.99915      .   S
    Zr45   O46       1.84100      .   S
    N14    O46       2.99912      .   S
    Zr45   O47       1.84101      .   S
    N9     O47       2.99915      .   S
    N16    O48       3.85199      .   S
    Zr27   O48       1.61511  1_554   S
    N16    O49       3.84344  1_565   S
    Zr24   O49       1.61145      .   S
    N5     O50       3.84344      .   S
    Zr27   O50       1.61145      .   S
    N5     O51       3.85200  1_565   S
    Zr24   O51       1.61511  1_455   S
    Zr27   O52       1.61145  1_554   S
    N15    O52       3.84344      .   S
    Zr27   O53       1.61511  1_565   S
    N3     O53       3.85199      .   S
    N19    O54       3.85199      .   S
    Zr42   O54       1.61511  1_554   S
    N19    O55       3.84344  1_455   S
    Zr36   O55       1.61145      .   S
    Zr45   O56       1.61145      .   S
    N10    O56       3.84345  1_565   S
    Zr45   O57       1.61511  1_556   S
    N8     O57       3.85199      .   S
    Zr45   O58       1.61511  1_556   S
    N11    O58       3.85200      .   S
    Zr45   O59       1.61145      .   S
    N7     O59       3.84344      .   S
    Zr42   O60       1.61145      .   S
    N18    O60       3.84344  1_545   S
    Zr42   O61       1.61145      .   S
    N21    O61       3.84345      .   S
    Zr42   O62       1.61511  1_554   S
    N20    O62       3.85200      .   S
    N2     O63       3.84344      .   S
    Zr30   O63       1.61145  1_554   S
    N2     O64       3.85199      .   S
    Zr33   O64       1.61511      .   S
    Zr24   O65       1.61511  1_545   S
    N13    O65       3.85199      .   S
    Zr24   O66       1.61145      .   S
    N0     O66       3.84345      .   S
    N10    O67       3.85199      .   S
    Zr36   O67       1.61511      .   S
    N18    O68       3.85199      .   S
    Zr39   O68       1.61511      .   S
    Zr39   O69       1.61145      .   S
    N11    O69       3.84344  1_655   S
    Zr39   O70       1.61511      .   S
    N7     O70       3.85199      .   S
    Zr39   O71       1.61145      .   S
    N20    O71       3.84344      .   S
    N15    O72       3.85200      .   S
    Zr33   O72       1.61511      .   S
    Zr30   O73       1.61511  1_655   S
    N12    O73       3.85199      .   S
    Zr30   O74       1.61145      .   S
    N13    O74       3.84344  1_455   S
    Zr30   O75       1.61511  1_554   S
    N0     O75       3.85199  1_455   S
    N8     O76       3.84344      .   S
    Zr36   O76       1.61145      .   S
    Zr36   O77       1.61511      .   S
    N21    O77       3.85199      .   S
    N12    O78       3.84345      .   S
    Zr33   O78       1.61145      .   S
    N3     O79       3.84344      .   S
    Zr33   O79       1.61145      .   S
