# CIF file generated by openbabel 2.4.90, see http://openbabel.sf.net
data_I
_chemical_name_common ''
_cell_length_a 24.7318
_cell_length_b 24.7318
_cell_length_c 24.7318
_cell_angle_alpha 127.653
_cell_angle_beta 127.653
_cell_angle_gamma 77.1881
_space_group_name_H-M_alt 'P 1'
_space_group_name_Hall 'P 1'
loop_
    _symmetry_equiv_pos_as_xyz
    x,y,z
loop_
    _atom_site_label
    _atom_site_type_symbol
    _atom_site_fract_x
    _atom_site_fract_y
    _atom_site_fract_z
    _atom_site_occupancy
    N0      N    0.00066   0.26222   0.76212   1.000
    N1      N    0.36005   0.37500   0.48505   1.000
    N2      N    0.73778   0.49990   0.73844   1.000
    N3      N    0.50010   0.23854   0.23788   1.000
    N4      N    0.88995   0.87500   0.51495   1.000
    N5      N    0.76146   0.99934   0.26156   1.000
    N6      N    0.12500   0.63995   0.01495   1.000
    N7      N    0.48854   0.25010   0.73788   1.000
    N8      N    0.74990   0.48778   0.23844   1.000
    N9      N    0.62500   0.11005   0.98505   1.000
    N10     N    0.74934   0.98778   0.73788   1.000
    N11     N    0.98854   0.25066   0.23844   1.000
    N12     N    0.23778   0.49934   0.23788   1.000
    N13     N    0.00010   0.76222   0.26156   1.000
    N14     N    0.86005   0.37500   0.98505   1.000
    N15     N    0.50066   0.73854   0.73844   1.000
    N16     N    0.26146   0.99990   0.76212   1.000
    N17     N    0.38995   0.87500   0.01495   1.000
    N18     N    0.24990   0.01146   0.26212   1.000
    N19     N    0.01222   0.75010   0.76156   1.000
    N20     N    0.24934   0.51146   0.76156   1.000
    N21     N    0.51222   0.75066   0.26212   1.000
    N22     N    0.62500   0.61005   0.48505   1.000
    N23     N    0.12500   0.13995   0.51495   1.000
    Zr24    Zr   0.01210   0.01210   0.52421   1.000
    O25     O    0.07805   0.00193   0.59645   1.000
    O26     O    0.00297   0.92987   0.44863   1.000
    O27     O    0.92978   0.99823   0.44552   1.000
    O28     O    0.96585   0.96028   0.52123   1.000
    O29     O    0.99943   0.07700   0.59346   1.000
    O30     O    0.01575   0.94729   0.44552   1.000
    O31     O    0.09403   0.01646   0.59346   1.000
    O32     O    0.05539   0.06095   0.52123   1.000
    O33     O    0.94567   0.01876   0.44863   1.000
    O34     O    0.01840   0.09452   0.59645   1.000
    Zr35    Zr   0.51210   0.98789   0.00000   1.000
    O36     O    0.57805   0.98160   0.07612   1.000
    O37     O    0.46585   0.94461   0.00557   1.000
    O38     O    0.49943   0.90597   0.92243   1.000
    O39     O    0.50297   0.05433   0.07310   1.000
    O40     O    0.42978   0.98425   0.93155   1.000
    O41     O    0.51840   0.92195   0.92388   1.000
    O42     O    0.44567   0.99703   0.92690   1.000
    O43     O    0.51575   0.07022   0.06845   1.000
    O44     O    0.55539   0.03415   0.99443   1.000
    O45     O    0.59403   0.00057   0.07757   1.000
    Zr46    Zr   0.98789   0.51211   0.00000   1.000
    O47     O    0.92300   0.51646   0.92243   1.000
    O48     O    0.99807   0.59452   0.07612   1.000
    O49     O    0.03972   0.56095   0.00557   1.000
    O50     O    0.00177   0.44729   0.93155   1.000
    O51     O    0.07013   0.51876   0.07310   1.000
    O52     O    0.05271   0.49823   0.06845   1.000
    O53     O    0.98354   0.57700   0.07757   1.000
    O54     O    0.90548   0.50193   0.92388   1.000
    O55     O    0.98124   0.42987   0.92690   1.000
    O56     O    0.93905   0.46028   0.99443   1.000
    Zr57    Zr   0.48789   0.48789   0.47579   1.000
    O58     O    0.40548   0.48160   0.40355   1.000
    O59     O    0.55271   0.48425   0.55448   1.000
    O60     O    0.48354   0.40597   0.40654   1.000
    O61     O    0.48124   0.55433   0.55137   1.000
    O62     O    0.43905   0.44461   0.47877   1.000
    O63     O    0.42300   0.50057   0.40654   1.000
    O64     O    0.50177   0.57022   0.55448   1.000
    O65     O    0.49807   0.42195   0.40355   1.000
    O66     O    0.53972   0.53415   0.47877   1.000
    O67     O    0.57013   0.49703   0.55137   1.000
    Zr68    Zr   0.76211   0.73789   0.50000   1.000
    O69     O    0.67987   0.73124   0.42690   1.000
    O70     O    0.74823   0.80271   0.56845   1.000
    O71     O    0.75193   0.65548   0.42388   1.000
    O72     O    0.82700   0.73354   0.57757   1.000
    O73     O    0.71028   0.68905   0.49443   1.000
    O74     O    0.69729   0.75177   0.43155   1.000
    O75     O    0.76876   0.82013   0.57310   1.000
    O76     O    0.76646   0.67300   0.42243   1.000
    O77     O    0.81095   0.78972   0.50557   1.000
    O78     O    0.84452   0.74807   0.57612   1.000
    Zr79    Zr   0.23789   0.26211   0.50000   1.000
    O80     O    0.25057   0.34403   0.57757   1.000
    O81     O    0.17195   0.26840   0.42388   1.000
    O82     O    0.24703   0.19567   0.42690   1.000
    O83     O    0.32022   0.26575   0.56845   1.000
    O84     O    0.28415   0.30539   0.49443   1.000
    O85     O    0.23425   0.17978   0.43155   1.000
    O86     O    0.19461   0.21585   0.50557   1.000
    O87     O    0.23160   0.32805   0.57612   1.000
    O88     O    0.15597   0.24943   0.42243   1.000
    O89     O    0.30433   0.25297   0.57310   1.000
    Zr90    Zr   0.26211   0.76210   0.02421   1.000
    O91     O    0.21028   0.71585   0.02123   1.000
    O92     O    0.25193   0.82805   0.09645   1.000
    O93     O    0.32700   0.74943   0.09346   1.000
    O94     O    0.24823   0.67978   0.94552   1.000
    O95     O    0.17987   0.75297   0.94863   1.000
    O96     O    0.19729   0.76575   0.94552   1.000
    O97     O    0.34452   0.76840   0.09645   1.000
    O98     O    0.26646   0.84403   0.09346   1.000
    O99     O    0.31095   0.80539   0.02123   1.000
    O100    O    0.26876   0.69567   0.94863   1.000
    Zr101   Zr   0.73790   0.23789   0.97579   1.000
    O102    O    0.75057   0.17300   0.90654   1.000
    O103    O    0.74703   0.32013   0.05137   1.000
    O104    O    0.67195   0.24807   0.90355   1.000
    O105    O    0.82022   0.25177   0.05448   1.000
    O106    O    0.78415   0.28972   0.97877   1.000
    O107    O    0.65597   0.23354   0.90654   1.000
    O108    O    0.69461   0.18905   0.97877   1.000
    O109    O    0.80433   0.23124   0.05137   1.000
    O110    O    0.73160   0.15548   0.90355   1.000
    O111    O    0.73425   0.30271   0.05448   1.000
loop_
    _geom_bond_atom_site_label_1
    _geom_bond_atom_site_label_2
    _geom_bond_distance
    _geom_bond_site_symmetry_2
    _ccdc_geom_bond_type
    Zr24   O25       1.64998      .   S
    N16    O25       3.84833  1_565   S
    Zr24   O26       1.65061  1_545   S
    N13    O26       3.85937      .   S
    Zr24   O27       1.64429  1_445   S
    N5     O27       3.87195      .   S
    Zr24   O28       1.84100  1_445   S
    N4     O28       2.99912      .   S
    Zr24   O29       1.63770  1_455   S
    N0     O29       3.86593  1_455   S
    Zr24   O30       1.64430  1_545   S
    N13    O30       3.87195      .   S
    Zr24   O31       1.63770      .   S
    N16    O31       3.86592  1_565   S
    Zr24   O32       1.84101      .   S
    N23    O32       2.99915      .   S
    Zr24   O33       1.65061  1_455   S
    N5     O33       3.85937  1_565   S
    Zr24   O34       1.64998      .   S
    N0     O34       3.84834      .   S
    Zr35   O36       1.64997      .   S
    N5     O36       3.84833      .   S
    Zr35   O37       1.84100      .   S
    N17    O37       2.99912      .   S
    Zr35   O38       1.63769  1_554   S
    N15    O38       3.86592      .   S
    Zr35   O39       1.65061  1_565   S
    N3     O39       3.85937      .   S
    Zr35   O40       1.64429  1_554   S
    N16    O40       3.87195      .   S
    Zr35   O41       1.64997  1_554   S
    N15    O41       3.84833      .   S
    Zr35   O42       1.65061  1_554   S
    N16    O42       3.85937      .   S
    Zr35   O43       1.64429  1_565   S
    N3     O43       3.87195      .   S
    Zr35   O44       1.84100  1_564   S
    N9     O44       2.99912      .   S
    Zr35   O45       1.63769  1_565   S
    N5     O45       3.86592  1_565   S
    Zr46   O47       1.63770  1_554   S
    N2     O47       3.86592      .   S
    Zr46   O48       1.64997      .   S
    N13    O48       3.84833  1_455   S
    Zr46   O49       1.84101  1_655   S
    N6     O49       2.99915      .   S
    Zr46   O50       1.64429  1_654   S
    N0     O50       3.87194      .   S
    Zr46   O51       1.65061  1_655   S
    N12    O51       3.85937      .   S
    Zr46   O52       1.64429  1_655   S
    N12    O52       3.87194      .   S
    Zr46   O53       1.63770      .   S
    N13    O53       3.86592  1_455   S
    Zr46   O54       1.64997  1_554   S
    N2     O54       3.84833      .   S
    Zr46   O55       1.65061  1_554   S
    N0     O55       3.85937  1_455   S
    Zr46   O56       1.84101  1_554   S
    N14    O56       2.99915      .   S
    Zr57   O58       1.64998      .   S
    N12    O58       3.84834      .   S
    Zr57   O59       1.64430      .   S
    N2     O59       3.87195      .   S
    Zr57   O60       1.63770      .   S
    N3     O60       3.86592      .   S
    Zr57   O61       1.65061      .   S
    N15    O61       3.85937      .   S
    Zr57   O62       1.84101      .   S
    N1     O62       2.99915      .   S
    Zr57   O63       1.63770      .   S
    N12    O63       3.86593      .   S
    Zr57   O64       1.64429      .   S
    N15    O64       3.87195      .   S
    Zr57   O65       1.64998      .   S
    N3     O65       3.84833      .   S
    Zr57   O66       1.84100      .   S
    N22    O66       2.99912      .   S
    Zr57   O67       1.65061      .   S
    N2     O67       3.85937      .   S
    Zr68   O69       1.65061      .   S
    N21    O69       3.85937      .   S
    Zr68   O70       1.64429      .   S
    N10    O70       3.87194      .   S
    Zr68   O71       1.64997      .   S
    N8     O71       3.84833      .   S
    Zr68   O72       1.63770      .   S
    N19    O72       3.86592  1_455   S
    Zr68   O73       1.84101      .   S
    N22    O73       2.99915      .   S
    Zr68   O74       1.64429      .   S
    N21    O74       3.87194      .   S
    Zr68   O75       1.65061      .   S
    N10    O75       3.85937      .   S
    Zr68   O76       1.63770      .   S
    N8     O76       3.86592      .   S
    Zr68   O77       1.84101      .   S
    N4     O77       2.99915      .   S
    Zr68   O78       1.64997      .   S
    N19    O78       3.84833  1_455   S
    Zr79   O80       1.63769      .   S
    N20    O80       3.86592      .   S
    Zr79   O81       1.64997      .   S
    N11    O81       3.84833  1_655   S
    Zr79   O82       1.65061      .   S
    N18    O82       3.85937      .   S
    Zr79   O83       1.64429      .   S
    N7     O83       3.87195      .   S
    Zr79   O84       1.84100      .   S
    N1     O84       2.99912      .   S
    Zr79   O85       1.64429      .   S
    N18    O85       3.87195      .   S
    Zr79   O86       1.84100      .   S
    N23    O86       2.99912      .   S
    Zr79   O87       1.64997      .   S
    N20    O87       3.84833      .   S
    Zr79   O88       1.63769      .   S
    N11    O88       3.86592  1_655   S
    Zr79   O89       1.65061      .   S
    N7     O89       3.85937      .   S
    Zr90   O91       1.84100      .   S
    N6     O91       2.99912      .   S
    Zr90   O92       1.64998      .   S
    N18    O92       3.84833  1_545   S
    Zr90   O93       1.63770      .   S
    N21    O93       3.86593      .   S
    Zr90   O94       1.64429  1_554   S
    N20    O94       3.87195      .   S
    Zr90   O95       1.65061  1_554   S
    N19    O95       3.85937      .   S
    Zr90   O96       1.64430  1_554   S
    N19    O96       3.87195      .   S
    Zr90   O97       1.64998      .   S
    N21    O97       3.84834      .   S
    Zr90   O98       1.63770      .   S
    N18    O98       3.86592  1_545   S
    Zr90   O99       1.84101      .   S
    N17    O99       2.99915      .   S
    Zr90   O100      1.65061  1_554   S
    N20    O100      3.85937      .   S
    Zr101  O102      1.63770      .   S
    N10    O102      3.86593  1_565   S
    Zr101  O103      1.65061  1_556   S
    N8     O103      3.85937      .   S
    Zr101  O104      1.64998      .   S
    N7     O104      3.84833      .   S
    Zr101  O105      1.64429  1_556   S
    N11    O105      3.87195      .   S
    Zr101  O106      1.84100      .   S
    N14    O106      2.99912      .   S
    Zr101  O107      1.63770      .   S
    N7     O107      3.86592      .   S
    Zr101  O108      1.84101      .   S
    N9     O108      2.99915      .   S
    Zr101  O109      1.65061  1_556   S
    N11    O109      3.85937      .   S
    Zr101  O110      1.64998      .   S
    N10    O110      3.84834  1_565   S
    Zr101  O111      1.64430  1_556   S
    N8     O111      3.87195      .   S
