# CIF file generated by openbabel 2.4.90, see http://openbabel.sf.net
data_I
_chemical_name_common ''
_cell_length_a 7.8022
_cell_length_b 11.1795
_cell_length_c 13.4306
_cell_angle_alpha 114.595
_cell_angle_beta 102.582
_cell_angle_gamma 90
_space_group_name_H-M_alt 'P 1'
_space_group_name_Hall 'P 1'
loop_
    _symmetry_equiv_pos_as_xyz
    x,y,z
loop_
    _atom_site_label
    _atom_site_type_symbol
    _atom_site_fract_x
    _atom_site_fract_y
    _atom_site_fract_z
    _atom_site_occupancy
    C0      C    0.48581   0.02304   0.40111   1.000
    C1      C    0.61940   0.95149   0.43218   1.000
    C2      C    0.36637   0.07137   0.47055   1.000
    C3      C    0.78517   0.49062   0.90907   1.000
    C4      C    0.78415   0.36565   0.91010   1.000
    C5      C    0.01393   0.62149   0.59854   1.000
    C6      C    0.87948   0.51932   0.56719   1.000
    C7      C    0.13414   0.59970   0.52952   1.000
    C8      C    0.71351   0.58131   0.09513   1.000
    C9      C    0.71471   0.45551   0.09359   1.000
    C10     C    0.51382   0.97757   0.59864   1.000
    C11     C    0.38018   0.04910   0.56756   1.000
    C12     C    0.63325   0.92926   0.52919   1.000
    C13     C    0.21525   0.50955   0.09124   1.000
    C14     C    0.21561   0.63516   0.09140   1.000
    C15     C    0.98583   0.37810   0.40130   1.000
    C16     C    0.12024   0.48028   0.43265   1.000
    C17     C    0.86562   0.39986   0.47032   1.000
    C18     C    0.28510   0.41843   0.90887   1.000
    C19     C    0.28450   0.54390   0.90874   1.000
    C20     C    0.75051   0.60146   0.99929   1.000
    C21     C    0.74955   0.34626   0.00145   1.000
    C22     C    0.25022   0.39928   0.00005   1.000
    C23     C    0.24997   0.65431   0.00007   1.000
    H24     H    0.71369   0.91190   0.38122   1.000
    H25     H    0.26124   0.12654   0.44994   1.000
    H26     H    0.81320   0.50009   0.83702   1.000
    H27     H    0.81154   0.28324   0.83842   1.000
    H28     H    0.78461   0.53120   0.61785   1.000
    H29     H    0.23993   0.67507   0.55032   1.000
    H30     H    0.68540   0.66327   0.16681   1.000
    H31     H    0.68739   0.44375   0.16485   1.000
    H32     H    0.28594   0.08870   0.61855   1.000
    H33     H    0.73840   0.87409   0.54976   1.000
    H34     H    0.18759   0.49903   0.16295   1.000
    H35     H    0.18822   0.71732   0.16324   1.000
    H36     H    0.21515   0.46842   0.38202   1.000
    H37     H    0.75984   0.32447   0.44950   1.000
    H38     H    0.31287   0.33627   0.83717   1.000
    H39     H    0.31184   0.55428   0.83690   1.000
loop_
    _geom_bond_atom_site_label_1
    _geom_bond_atom_site_label_2
    _geom_bond_distance
    _geom_bond_site_symmetry_2
    _ccdc_geom_bond_type
    C22    C13       1.40817      .   S
    C22    C18       1.40818  1_554   S
    C23    C14       1.40860      .   S
    C23    C19       1.40869  1_554   S
    C21    C9        1.40906      .   S
    C21    C4        1.41095  1_554   S
    C13    C14       1.40337      .   S
    C13    H34       1.08297      .   S
    C14    H35       1.08278      .   S
    C9     C8        1.39796      .   S
    C9     H31       1.08273      .   S
    C8     H30       1.08267      .   S
    C8     C20       1.48128  1_554   S
    H24    C1        1.08293      .   S
    H36    C16       1.08289      .   S
    C0     C1        1.41021  1_545   S
    C0     C2        1.41044      .   S
    C15    C16       1.41039  1_655   S
    C15    C17       1.41039      .   S
    C1     C12       1.40684      .   S
    C16    C7        1.40694      .   S
    H37    C17       1.08304      .   S
    H25    C2        1.08306      .   S
    C17    C6        1.40723      .   S
    C2     C11       1.40713      .   S
    C12    H33       1.08300      .   S
    C12    C10       1.41044      .   S
    C7     H29       1.08300      .   S
    C7     C5        1.41036      .   S
    C6     C5        1.41053  1_655   S
    C6     H28       1.08289      .   S
    C11    C10       1.41037  1_545   S
    C11    H32       1.08288      .   S
    H39    C19       1.08295      .   S
    H26    C3        1.08301      .   S
    H38    C18       1.08285      .   S
    H27    C4        1.08287      .   S
    C19    C18       1.40343      .   S
    C3     C4        1.40296      .   S
    C3     C20       1.40348      .   S
