# CIF file generated by openbabel 2.4.90, see http://openbabel.sf.net
data_I
_chemical_name_common ''
_cell_length_a 7.8022
_cell_length_b 11.1795
_cell_length_c 13.4306
_cell_angle_alpha 114.595
_cell_angle_beta 102.582
_cell_angle_gamma 90
_space_group_name_H-M_alt 'P 1'
_space_group_name_Hall 'P 1'
loop_
    _symmetry_equiv_pos_as_xyz
    x,y,z
loop_
    _atom_site_label
    _atom_site_type_symbol
    _atom_site_fract_x
    _atom_site_fract_y
    _atom_site_fract_z
    _atom_site_occupancy
    Zr0     Zr   0.82232   0.91885   0.88640   1.000
    Zr1     Zr   0.32232   0.96827   0.88647   1.000
    Zr2     Zr   0.17806   0.08188   0.11366   1.000
    C3      C    0.46817   0.04361   0.29562   1.000
    C4      C    0.03185   0.74775   0.70395   1.000
    C5      C    0.53172   0.95697   0.70414   1.000
    C6      C    0.96812   0.25188   0.29590   1.000
    Zr7     Zr   0.67802   0.03151   0.11366   1.000
    C8      C    0.74975   0.21215   0.00073   1.000
    C9      C    0.75058   0.73474   0.99935   1.000
    C10     C    0.24989   0.78819   0.00008   1.000
    C11     C    0.25029   0.26549   0.00003   1.000
    O12     O    0.71483   0.19991   0.08541   1.000
    O13     O    0.58161   0.99567   0.23596   1.000
    O14     O    0.41790   0.08843   0.05829   1.000
    O15     O    0.69987   0.82960   0.07972   1.000
    O16     O    0.33907   0.10568   0.27044   1.000
    O17     O    0.78475   0.11584   0.91561   1.000
    O18     O    0.91610   0.76092   0.76235   1.000
    O19     O    0.08271   0.03067   0.94185   1.000
    O20     O    0.80126   0.75003   0.91928   1.000
    O21     O    0.16290   0.83376   0.72981   1.000
    O22     O    0.28507   0.80004   0.91525   1.000
    O23     O    0.41659   0.00290   0.76290   1.000
    O24     O    0.58265   0.91168   0.94172   1.000
    O25     O    0.30116   0.17025   0.91990   1.000
    O26     O    0.66238   0.89641   0.72982   1.000
    O27     O    0.21467   0.88482   0.08493   1.000
    O28     O    0.08240   0.23969   0.23669   1.000
    O29     O    0.91784   0.96975   0.05814   1.000
    O30     O    0.19934   0.25034   0.08012   1.000
    O31     O    0.83836   0.16501   0.27049   1.000
loop_
    _geom_bond_atom_site_label_1
    _geom_bond_atom_site_label_2
    _geom_bond_distance
    _geom_bond_site_symmetry_2
    _ccdc_geom_bond_type
    C11    O30       1.29680      .   S
    C11    O25       1.29679  1_554   S
    C10    O27       1.28563      .   S
    C10    O22       1.28562  1_554   S
    C8     O12       1.28489      .   S
    C8     O17       1.28538  1_554   S
    O29    Zr7       2.17098  1_565   S
    O29    Zr0       2.08759  1_554   S
    O14    Zr2       2.17064      .   S
    O14    Zr1       2.08704  1_544   S
    O15    Zr7       2.12354  1_565   S
    O15    C9        1.29596  1_554   S
    O30    Zr2       2.12510      .   S
    O27    Zr2       2.10339  1_565   S
    O12    Zr7       2.10066      .   S
    Zr7    O13       2.12379  1_545   S
    Zr7    O31       2.11289      .   S
    Zr7    O24       2.08741  1_544   S
    Zr2    O28       2.12382      .   S
    Zr2    O16       2.11279      .   S
    Zr2    O19       2.08765  1_554   S
    O13    C3        1.29002  1_565   S
    O28    C6        1.29022  1_455   S
    O16    C3        1.28740      .   S
    O31    C6        1.28771      .   S
    C4     O21       1.28762      .   S
    C4     O18       1.29033  1_455   S
    C5     O26       1.28754      .   S
    C5     O23       1.29030  1_565   S
    O21    Zr1       2.11222      .   S
    O26    Zr0       2.11190      .   S
    O18    Zr0       2.12390      .   S
    O23    Zr1       2.12411  1_545   S
    Zr0    O17       2.10254  1_565   S
    Zr0    O20       2.12353      .   S
    Zr0    O24       2.17026      .   S
    Zr1    O22       2.10359      .   S
    Zr1    O25       2.12508  1_565   S
    Zr1    O19       2.16996  1_565   S
    O20    C9        1.29627      .   S
    O14    Zr7       2.19390      .   S
    O19    Zr0       2.19333  1_445   S
    O24    Zr1       2.19330      .   S
    O29    Zr2       2.19359  1_665   S
