# CIF file generated by openbabel 2.4.90, see http://openbabel.sf.net
data_I
_chemical_name_common ''
_cell_length_a 7.8022
_cell_length_b 11.1795
_cell_length_c 13.4306
_cell_angle_alpha 114.595
_cell_angle_beta 102.582
_cell_angle_gamma 90
_space_group_name_H-M_alt 'P 1'
_space_group_name_Hall 'P 1'
loop_
    _symmetry_equiv_pos_as_xyz
    x,y,z
loop_
    _atom_site_label
    _atom_site_type_symbol
    _atom_site_fract_x
    _atom_site_fract_y
    _atom_site_fract_z
    _atom_site_occupancy
    C0      C    0.67802   0.03151   0.11366   1.000
    C1      C    0.82232   0.91885   0.88640   1.000
    C2      C    0.32232   0.96827   0.88647   1.000
    C3      C    0.17806   0.08188   0.11366   1.000
    C4      C    0.46817   0.04361   0.29562   1.000
    C5      C    0.48581   0.02304   0.40111   1.000
    C6      C    0.61940   0.95149   0.43218   1.000
    C7      C    0.36637   0.07137   0.47055   1.000
    C8      C    0.78517   0.49062   0.90907   1.000
    C9      C    0.78415   0.36565   0.91010   1.000
    C10     C    0.03185   0.74775   0.70395   1.000
    C11     C    0.01393   0.62149   0.59854   1.000
    C12     C    0.87948   0.51932   0.56719   1.000
    C13     C    0.13414   0.59970   0.52952   1.000
    C14     C    0.71351   0.58131   0.09513   1.000
    C15     C    0.71471   0.45551   0.09359   1.000
    C16     C    0.53172   0.95697   0.70414   1.000
    C17     C    0.51382   0.97757   0.59864   1.000
    C18     C    0.38018   0.04910   0.56756   1.000
    C19     C    0.63325   0.92926   0.52919   1.000
    C20     C    0.21525   0.50955   0.09124   1.000
    C21     C    0.21561   0.63516   0.09140   1.000
    C22     C    0.96812   0.25188   0.29590   1.000
    C23     C    0.98583   0.37810   0.40130   1.000
    C24     C    0.12024   0.48028   0.43265   1.000
    C25     C    0.86562   0.39986   0.47032   1.000
    C26     C    0.28510   0.41843   0.90887   1.000
    C27     C    0.28450   0.54390   0.90874   1.000
    C28     C    0.74975   0.21215   0.00073   1.000
    C29     C    0.75058   0.73474   0.99935   1.000
    C30     C    0.75051   0.60146   0.99929   1.000
    C31     C    0.74955   0.34626   0.00145   1.000
    C32     C    0.24989   0.78819   0.00008   1.000
    C33     C    0.25029   0.26549   0.00003   1.000
    C34     C    0.25022   0.39928   0.00005   1.000
    C35     C    0.24997   0.65431   0.00007   1.000
    C36     C    0.71483   0.19991   0.08541   1.000
    C37     C    0.58161   0.99567   0.23596   1.000
    C38     C    0.41790   0.08843   0.05829   1.000
    C39     C    0.69987   0.82960   0.07972   1.000
    C40     C    0.33907   0.10568   0.27044   1.000
    C41     C    0.78475   0.11584   0.91561   1.000
    C42     C    0.91610   0.76092   0.76235   1.000
    C43     C    0.08271   0.03067   0.94185   1.000
    C44     C    0.80126   0.75003   0.91928   1.000
    C45     C    0.16290   0.83376   0.72981   1.000
    C46     C    0.28507   0.80004   0.91525   1.000
    C47     C    0.41659   0.00290   0.76290   1.000
    C48     C    0.58265   0.91168   0.94172   1.000
    C49     C    0.30116   0.17025   0.91990   1.000
    C50     C    0.66238   0.89641   0.72982   1.000
    C51     C    0.21467   0.88482   0.08493   1.000
    C52     C    0.08240   0.23969   0.23669   1.000
    C53     C    0.91784   0.96975   0.05814   1.000
    C54     C    0.19934   0.25034   0.08012   1.000
    C55     C    0.83836   0.16501   0.27049   1.000
    C56     C    0.71369   0.91190   0.38122   1.000
    C57     C    0.26124   0.12654   0.44994   1.000
    C58     C    0.81320   0.50009   0.83702   1.000
    C59     C    0.81154   0.28324   0.83842   1.000
    C60     C    0.78461   0.53120   0.61785   1.000
    C61     C    0.23993   0.67507   0.55032   1.000
    C62     C    0.68540   0.66327   0.16681   1.000
    C63     C    0.68739   0.44375   0.16485   1.000
    C64     C    0.28594   0.08870   0.61855   1.000
    C65     C    0.73840   0.87409   0.54976   1.000
    C66     C    0.18759   0.49903   0.16295   1.000
    C67     C    0.18822   0.71732   0.16324   1.000
    C68     C    0.21515   0.46842   0.38202   1.000
    C69     C    0.75984   0.32447   0.44950   1.000
    C70     C    0.31287   0.33627   0.83717   1.000
    C71     C    0.31184   0.55428   0.83690   1.000
    O72     O    0.25026   0.33239   0.00004   1.000
    O73     O    0.22482   0.25792   0.04007   1.000
    O74     O    0.27572   0.21787   0.95996   1.000
    O75     O    0.23273   0.45442   0.04564   1.000
    O76     O    0.26766   0.40886   0.95446   1.000
    O77     O    0.24993   0.72125   0.00007   1.000
    O78     O    0.23279   0.64473   0.04573   1.000
    O79     O    0.26724   0.59911   0.95440   1.000
    O80     O    0.23228   0.83651   0.04250   1.000
    O81     O    0.26748   0.79412   0.95766   1.000
    O82     O    0.74965   0.27921   0.00109   1.000
    O83     O    0.73229   0.20603   0.04307   1.000
    O84     O    0.76725   0.16399   0.95817   1.000
    O85     O    0.73213   0.40088   0.04752   1.000
    O86     O    0.76685   0.35596   0.95577   1.000
    O87     O    0.79793   0.00063   0.08590   1.000
    O88     O    0.87008   0.94430   0.97227   1.000
    O89     O    0.29798   0.08515   0.08597   1.000
    O90     O    0.37011   0.02835   0.97238   1.000
    O91     O    0.68895   0.93055   0.09669   1.000
    O92     O    0.72523   0.78217   0.03953   1.000
    O93     O    0.18870   0.16611   0.09689   1.000
    O94     O    0.19636   0.98335   0.09929   1.000
    O95     O    0.69642   0.11571   0.09953   1.000
    O96     O    0.21543   0.57236   0.09132   1.000
    O97     O    0.20142   0.50429   0.12709   1.000
    O98     O    0.20191   0.67624   0.12732   1.000
    O99     O    0.71411   0.51841   0.09436   1.000
    O100    O    0.70105   0.44963   0.12922   1.000
    O101    O    0.69946   0.62229   0.13097   1.000
    O102    O    0.73201   0.59138   0.04721   1.000
    O103    O    0.62981   0.01359   0.17481   1.000
    O104    O    0.75819   0.09826   0.19207   1.000
    O105    O    0.63033   0.97160   0.02769   1.000
    O106    O    0.13023   0.16079   0.17517   1.000
    O107    O    0.25856   0.09378   0.19205   1.000
    O108    O    0.13038   0.05628   0.02775   1.000
    O109    O    0.52489   0.01964   0.26579   1.000
    O110    O    0.02526   0.24578   0.26629   1.000
    O111    O    0.40362   0.07465   0.28303   1.000
    O112    O    0.90324   0.20845   0.28319   1.000
    O113    O    0.47699   0.03333   0.34836   1.000
    O114    O    0.97697   0.31499   0.34860   1.000
    O115    O    0.66655   0.93170   0.40670   1.000
    O116    O    0.16769   0.47435   0.40733   1.000
    O117    O    0.55261   0.98727   0.41664   1.000
    O118    O    0.42609   0.04720   0.43583   1.000
    O119    O    0.05303   0.42919   0.41697   1.000
    O120    O    0.92572   0.38898   0.43581   1.000
    O121    O    0.62633   0.94038   0.48068   1.000
    O122    O    0.12719   0.53999   0.48108   1.000
    O123    O    0.81273   0.36216   0.45991   1.000
    O124    O    0.31380   0.09896   0.46024   1.000
    O125    O    0.87255   0.45959   0.51875   1.000
    O126    O    0.37327   0.06023   0.51905   1.000
    O127    O    0.68582   0.90168   0.53947   1.000
    O128    O    0.57353   0.95342   0.56391   1.000
    O129    O    0.18703   0.63738   0.53992   1.000
    O130    O    0.07403   0.61059   0.56403   1.000
    O131    O    0.94671   0.57041   0.58286   1.000
    O132    O    0.83205   0.52526   0.59252   1.000
    O133    O    0.44700   0.01334   0.58310   1.000
    O134    O    0.33306   0.06890   0.59305   1.000
    O135    O    0.02289   0.68462   0.65124   1.000
    O136    O    0.52277   0.96727   0.65139   1.000
    O137    O    0.09737   0.79075   0.71688   1.000
    O138    O    0.97398   0.75433   0.73315   1.000
    O139    O    0.59705   0.92669   0.71698   1.000
    O140    O    0.47415   0.97994   0.73352   1.000
    O141    O    0.24261   0.90102   0.80814   1.000
    O142    O    0.74235   0.90763   0.80811   1.000
    O143    O    0.86921   0.83988   0.82437   1.000
    O144    O    0.36945   0.98559   0.82468   1.000
    O145    O    0.29817   0.54909   0.87282   1.000
    O146    O    0.79918   0.49536   0.87304   1.000
    O147    O    0.29898   0.37735   0.87302   1.000
    O148    O    0.79784   0.32444   0.87426   1.000
    O149    O    0.80353   0.01734   0.90100   1.000
    O150    O    0.81179   0.83444   0.90284   1.000
    O151    O    0.70249   0.91526   0.91406   1.000
    O152    O    0.30369   0.88416   0.90086   1.000
    O153    O    0.31174   0.06926   0.90318   1.000
    O154    O    0.20251   0.99947   0.91416   1.000
    O155    O    0.28480   0.48117   0.90880   1.000
    O156    O    0.78466   0.42814   0.90958   1.000
    O157    O    0.76784   0.54604   0.95418   1.000
    O158    O    0.77592   0.74238   0.95931   1.000
    O159    O    0.75054   0.66810   0.99932   1.000
    O160    O    0.54796   0.05997   0.08597   1.000
    O161    O    0.95252   0.97476   0.91412   1.000
    O162    O    0.45248   0.93998   0.91409   1.000
    O163    O    0.04795   0.02582   0.08590   1.000
loop_
    _geom_bond_atom_site_label_1
    _geom_bond_atom_site_label_2
    _geom_bond_distance
    _geom_bond_site_symmetry_2
    _ccdc_geom_bond_type
    C33    O72       0.74780      .   S
    C34    O72       0.74780      .   S
    C33    O73       0.64840      .   S
    C54    O73       0.64840      .   S
    C33    O74       0.64839  1_554   S
    C49    O74       0.64839      .   S
    C34    O75       0.70408      .   S
    C20    O75       0.70408      .   S
    C34    O76       0.70409  1_554   S
    C26    O76       0.70409      .   S
    C35    O77       0.74833      .   S
    C32    O77       0.74833      .   S
    C35    O78       0.70430      .   S
    C21    O78       0.70430      .   S
    C35    O79       0.70435  1_554   S
    C27    O79       0.70435      .   S
    C32    O80       0.64282      .   S
    C51    O80       0.64282      .   S
    C32    O81       0.64281  1_554   S
    C46    O81       0.64281      .   S
    C28    O82       0.74764      .   S
    C31    O82       0.74764      .   S
    C28    O83       0.64245      .   S
    C36    O83       0.64245      .   S
    C28    O84       0.64269  1_554   S
    C41    O84       0.64269      .   S
    C31    O85       0.70453      .   S
    C15    O85       0.70453      .   S
    C31    O86       0.70548  1_554   S
    C9     O86       0.70548      .   S
    C53    O87       1.08549  1_565   S
    C0     O87       1.08549      .   S
    C53    O88       1.04379  1_554   S
    C1     O88       1.04379      .   S
    C38    O89       1.08532      .   S
    C3     O89       1.08532      .   S
    C38    O90       1.04352  1_554   S
    C2     O90       1.04352  1_565   S
    C39    O91       1.06177      .   S
    C0     O91       1.06177  1_545   S
    C39    O92       0.64798      .   S
    C29    O92       0.64798  1_556   S
    C54    O93       1.06255      .   S
    C3     O93       1.06255      .   S
    C51    O94       1.05170      .   S
    C3     O94       1.05170  1_545   S
    C36    O95       1.05033      .   S
    C0     O95       1.05033      .   S
    C20    O96       0.70168      .   S
    C21    O96       0.70168      .   S
    C20    O97       0.54148      .   S
    C66    O97       0.54148      .   S
    C21    O98       0.54139      .   S
    C67    O98       0.54139      .   S
    C15    O99       0.69898      .   S
    C14    O99       0.69898      .   S
    C15    O100      0.54137      .   S
    C63    O100      0.54137      .   S
    C14    O101      0.54134      .   S
    C62    O101      0.54134      .   S
    C14    O102      0.74064      .   S
    C30    O102      0.74064  1_556   S
    C0     O103      1.06190      .   S
    C37    O103      1.06190  1_565   S
    C0     O104      1.05644      .   S
    C55    O104      1.05644      .   S
    C0     O105      1.04370  1_545   S
    C48    O105      1.04370  1_556   S
    C3     O106      1.06191      .   S
    C52    O106      1.06191      .   S
    C3     O107      1.05639      .   S
    C40    O107      1.05639      .   S
    C3     O108      1.04382      .   S
    C43    O108      1.04382  1_556   S
    C37    O109      0.64501  1_565   S
    C4     O109      0.64501      .   S
    C52    O110      0.64511      .   S
    C22    O110      0.64511  1_655   S
    C40    O111      0.64370      .   S
    C4     O111      0.64370      .   S
    C55    O112      0.64385      .   S
    C22    O112      0.64385      .   S
    C4     O113      0.75256      .   S
    C5     O113      0.75256      .   S
    C22    O114      0.75269      .   S
    C23    O114      0.75269      .   S
    C56    O115      0.54147      .   S
    C6     O115      0.54147      .   S
    C68    O116      0.54144      .   S
    C24    O116      0.54144      .   S
    C5     O117      0.70511  1_545   S
    C6     O117      0.70511      .   S
    C5     O118      0.70522      .   S
    C7     O118      0.70522      .   S
    C23    O119      0.70520  1_655   S
    C24    O119      0.70520      .   S
    C23    O120      0.70520      .   S
    C25    O120      0.70520      .   S
    C6     O121      0.70342      .   S
    C19    O121      0.70342      .   S
    C24    O122      0.70347      .   S
    C13    O122      0.70347      .   S
    C69    O123      0.54152      .   S
    C25    O123      0.54152      .   S
    C57    O124      0.54153      .   S
    C7     O124      0.54153      .   S
    C25    O125      0.70362      .   S
    C12    O125      0.70362      .   S
    C7     O126      0.70356      .   S
    C18    O126      0.70356      .   S
    C19    O127      0.54150      .   S
    C65    O127      0.54150      .   S
    C19    O128      0.70522      .   S
    C17    O128      0.70522      .   S
    C13    O129      0.54150      .   S
    C61    O129      0.54150      .   S
    C13    O130      0.70518      .   S
    C11    O130      0.70518      .   S
    C12    O131      0.70526      .   S
    C11    O131      0.70526  1_455   S
    C12    O132      0.54145      .   S
    C60    O132      0.54145      .   S
    C18    O133      0.70518      .   S
    C17    O133      0.70518  1_565   S
    C18    O134      0.54144      .   S
    C64    O134      0.54144      .   S
    C11    O135      0.75276      .   S
    C10    O135      0.75276      .   S
    C17    O136      0.75260      .   S
    C16    O136      0.75260      .   S
    C10    O137      0.64381      .   S
    C45    O137      0.64381      .   S
    C10    O138      0.64517  1_455   S
    C42    O138      0.64517      .   S
    C16    O139      0.64377      .   S
    C50    O139      0.64377      .   S
    C16    O140      0.64515      .   S
    C47    O140      0.64515  1_545   S
    C45    O141      1.05611      .   S
    C2     O141      1.05611      .   S
    C50    O142      1.05595      .   S
    C1     O142      1.05595      .   S
    C42    O143      1.06195      .   S
    C1     O143      1.06195      .   S
    C47    O144      1.06206  1_545   S
    C2     O144      1.06206      .   S
    C71    O145      0.54147      .   S
    C27    O145      0.54147      .   S
    C58    O146      0.54150      .   S
    C8     O146      0.54150      .   S
    C70    O147      0.54142      .   S
    C26    O147      0.54142      .   S
    C59    O148      0.54143      .   S
    C9     O148      0.54143      .   S
    C1     O149      1.05127  1_565   S
    C41    O149      1.05127      .   S
    C1     O150      1.06176      .   S
    C44    O150      1.06176      .   S
    C1     O151      1.08513      .   S
    C48    O151      1.08513      .   S
    C2     O152      1.05179      .   S
    C46    O152      1.05179      .   S
    C2     O153      1.06254  1_565   S
    C49    O153      1.06254      .   S
    C2     O154      1.08498      .   S
    C43    O154      1.08498  1_545   S
    C27    O155      0.70171      .   S
    C26    O155      0.70171      .   S
    C8     O156      0.70148      .   S
    C9     O156      0.70148      .   S
    C8     O157      0.70174      .   S
    C30    O157      0.70174      .   S
    C44    O158      0.64813      .   S
    C29    O158      0.64813      .   S
    C30    O159      0.74483      .   S
    C29    O159      0.74483      .   S
    C38    O160      1.09695      .   S
    C0     O160      1.09695      .   S
    C43    O161      1.09666  1_445   S
    C1     O161      1.09666      .   S
    C48    O162      1.09665      .   S
    C2     O162      1.09665      .   S
    C53    O163      1.09680  1_665   S
    C3     O163      1.09680      .   S
