# CIF file generated by openbabel 2.4.90, see http://openbabel.sf.net
data_I
_chemical_name_common ''
_cell_length_a 7.8022
_cell_length_b 11.1795
_cell_length_c 13.4306
_cell_angle_alpha 114.595
_cell_angle_beta 102.582
_cell_angle_gamma 90
_space_group_name_H-M_alt 'P 1'
_space_group_name_Hall 'P 1'
loop_
    _symmetry_equiv_pos_as_xyz
    x,y,z
loop_
    _atom_site_label
    _atom_site_type_symbol
    _atom_site_fract_x
    _atom_site_fract_y
    _atom_site_fract_z
    _atom_site_occupancy
    Zr0     Zr   0.67802   0.03151   0.11366   1.000
    Zr1     Zr   0.82232   0.91885   0.88640   1.000
    Zr2     Zr   0.32232   0.96827   0.88647   1.000
    Zr3     Zr   0.17806   0.08188   0.11366   1.000
    Zr4     Zr   0.41790   0.08843   0.05829   1.000
    Zr5     Zr   0.08271   0.03067   0.94185   1.000
    Zr6     Zr   0.58265   0.91168   0.94172   1.000
    Zr7     Zr   0.91784   0.96975   0.05814   1.000
    O8      O    0.79793   0.00063   0.08590   1.000
    O9      O    0.87008   0.94430   0.97227   1.000
    O10     O    0.29798   0.08515   0.08597   1.000
    O11     O    0.37011   0.02835   0.97238   1.000
    O12     O    0.63033   0.97160   0.02769   1.000
    O13     O    0.13038   0.05628   0.02775   1.000
    O14     O    0.70249   0.91526   0.91406   1.000
    O15     O    0.20251   0.99947   0.91416   1.000
    O16     O    0.54796   0.05997   0.08597   1.000
    O17     O    0.95252   0.97476   0.91412   1.000
    O18     O    0.45248   0.93998   0.91409   1.000
    O19     O    0.04795   0.02582   0.08590   1.000
    N20     N    0.74951   0.47312   0.00157   1.000
    N21     N    0.25012   0.52675   0.00006   1.000
    N22     N    0.49981   0.00031   0.49987   1.000
    N23     N    0.99988   0.49979   0.49992   1.000
    C24     C    0.03695   0.78081   0.73204   1.000
    O25     O    0.95308   0.81035   0.77821   1.000
    O26     O    0.13978   0.84091   0.77009   1.000
    O27     O    0.02417   0.68651   0.65381   1.000
    C28     C    0.74978   0.17597   0.00058   1.000
    O29     O    0.72310   0.14584   0.05006   1.000
    O30     O    0.74968   0.27606   0.00096   1.000
    O31     O    0.77666   0.09666   0.95079   1.000
    C32     C    0.75057   0.77146   0.99945   1.000
    O33     O    0.71976   0.85101   0.04807   1.000
    O34     O    0.75030   0.67103   0.99995   1.000
    O35     O    0.78118   0.80295   0.95114   1.000
    C36     C    0.96296   0.21886   0.26769   1.000
    O37     O    0.86058   0.15856   0.22988   1.000
    O38     O    0.04659   0.18982   0.22143   1.000
    O39     O    0.97569   0.31313   0.34598   1.000
    C40     C    0.25026   0.22869   0.00002   1.000
    O41     O    0.28100   0.14898   0.95160   1.000
    O42     O    0.25022   0.32913   0.00003   1.000
    O43     O    0.21948   0.19740   0.04845   1.000
    C44     C    0.24988   0.82435   0.00009   1.000
    O45     O    0.24995   0.72418   0.00008   1.000
    O46     O    0.22312   0.90385   0.04969   1.000
    O47     O    0.27679   0.85425   0.95047   1.000
    C48     C    0.46295   0.04832   0.26734   1.000
    O49     O    0.47567   0.03257   0.34573   1.000
    O50     O    0.54638   0.03096   0.22107   1.000
    O51     O    0.36076   0.07105   0.22969   1.000
    C52     C    0.53690   0.95209   0.73229   1.000
    O53     O    0.63962   0.92986   0.77020   1.000
    O54     O    0.52409   0.96794   0.65396   1.000
    O55     O    0.45318   0.96884   0.77849   1.000
loop_
    _geom_bond_atom_site_label_1
    _geom_bond_atom_site_label_2
    _geom_bond_distance
    _geom_bond_site_symmetry_2
    _ccdc_geom_bond_type
    Zr7    O8        1.08549  1_565   S
    Zr0    O8        1.08549      .   S
    Zr7    O9        1.04379  1_554   S
    Zr1    O9        1.04379      .   S
    Zr4    O10       1.08532      .   S
    Zr3    O10       1.08532      .   S
    Zr4    O11       1.04352  1_554   S
    Zr2    O11       1.04352  1_565   S
    Zr0    O12       1.04370  1_545   S
    Zr6    O12       1.04370  1_556   S
    Zr3    O13       1.04382      .   S
    Zr5    O13       1.04382  1_556   S
    Zr1    O14       1.08513      .   S
    Zr6    O14       1.08513      .   S
    Zr2    O15       1.08498      .   S
    Zr5    O15       1.08498  1_545   S
    Zr4    O16       1.09695      .   S
    Zr0    O16       1.09695      .   S
    Zr5    O17       1.09666  1_445   S
    Zr1    O17       1.09666      .   S
    Zr6    O18       1.09665      .   S
    Zr2    O18       1.09665      .   S
    Zr7    O19       1.09680  1_665   S
    Zr3    O19       1.09680      .   S
    C24    O25       0.96337  1_455   S
    Zr1    O25       1.94998      .   S
    C24    O26       0.94439      .   S
    Zr2    O26       1.91739      .   S
    C24    O27       1.12142      .   S
    N23    O27       2.21428  1_655   S
    C28    O29       0.91917      .   S
    Zr0    O29       1.87795      .   S
    C28    O30       1.11695      .   S
    N20    O30       2.19952      .   S
    C28    O31       0.91916  1_554   S
    Zr1    O31       1.87867  1_565   S
    C32    O33       0.92741  1_556   S
    Zr0    O33       1.89722  1_545   S
    C32    O34       1.12550      .   S
    N20    O34       2.22180  1_554   S
    C32    O35       0.92710      .   S
    Zr1    O35       1.89672      .   S
    C36    O37       0.94274      .   S
    Zr0    O37       1.91534      .   S
    C36    O38       0.96225  1_655   S
    Zr3    O38       1.94842      .   S
    C36    O39       1.12164      .   S
    N23    O39       2.21445      .   S
    C40    O41       0.92743  1_554   S
    Zr2    O41       1.89795  1_565   S
    C40    O42       1.12275      .   S
    N21    O42       2.20915      .   S
    C40    O43       0.92777      .   S
    Zr3    O43       1.89845      .   S
    C44    O45       1.11985      .   S
    N21    O45       2.20701      .   S
    C44    O46       0.91926      .   S
    Zr3    O46       1.87915  1_545   S
    C44    O47       0.91990  1_554   S
    Zr2    O47       1.88016      .   S
    C48    O49       1.12163      .   S
    N22    O49       2.21427      .   S
    C48    O50       0.96091      .   S
    Zr0    O50       1.94656      .   S
    C48    O51       0.94193      .   S
    Zr3    O51       1.91428      .   S
    C52    O53       0.94391      .   S
    Zr1    O53       1.91661      .   S
    C52    O54       1.12135      .   S
    N22    O54       2.21407  1_545   S
    C52    O55       0.96261      .   S
    Zr2    O55       1.94898      .   S
