# CIF file generated by openbabel 2.4.90, see http://openbabel.sf.net
data_I
_chemical_name_common ''
_cell_length_a 6.5472
_cell_length_b 7.5305
_cell_length_c 12.7118
_cell_angle_alpha 107.23
_cell_angle_beta 103.555
_cell_angle_gamma 90
_space_group_name_H-M_alt 'P 1'
_space_group_name_Hall 'P 1'
loop_
    _symmetry_equiv_pos_as_xyz
    x,y,z
loop_
    _atom_site_label
    _atom_site_type_symbol
    _atom_site_fract_x
    _atom_site_fract_y
    _atom_site_fract_z
    _atom_site_occupancy
    C0      C    0.06860   0.08680   0.71160   1.000
    C1      C    0.20100   0.00450   0.63300   1.000
    C2      C    0.22940   0.90170   0.43940   1.000
    C3      C    0.09600   0.96100   0.51600   1.000
    C4      C    0.87100   0.13300   0.67800   1.000
    C5      C    0.43140   0.37520   0.28840   1.000
    C6      C    0.29900   0.37150   0.36700   1.000
    C7      C    0.27060   0.46230   0.56060   1.000
    C8      C    0.40400   0.44500   0.48400   1.000
    C9      C    0.62900   0.45500   0.32200   1.000
    C10     C    0.93140   0.91320   0.28840   1.000
    C11     C    0.79900   0.99550   0.36700   1.000
    C12     C    0.77060   0.09830   0.56060   1.000
    C13     C    0.90400   0.03900   0.48400   1.000
    C14     C    0.12900   0.86700   0.32200   1.000
    C15     C    0.56860   0.62480   0.71160   1.000
    C16     C    0.70100   0.62850   0.63300   1.000
    C17     C    0.72940   0.53770   0.43940   1.000
    C18     C    0.59600   0.55500   0.51600   1.000
    C19     C    0.37100   0.54500   0.67800   1.000
    H20     H    0.37228   0.98088   0.66791   1.000
    H21     H    0.40317   0.88523   0.47373   1.000
    H22     H    0.77996   0.20144   0.74384   1.000
    H23     H    0.12772   0.31297   0.33209   1.000
    H24     H    0.09683   0.41150   0.52627   1.000
    H25     H    0.72004   0.45760   0.25616   1.000
    H26     H    0.62772   0.01912   0.33209   1.000
    H27     H    0.59561   0.11828   0.53353   1.000
    H28     H    0.22004   0.79856   0.25616   1.000
    H29     H    0.87228   0.68703   0.66791   1.000
    H30     H    0.90439   0.58475   0.46647   1.000
    H31     H    0.28343   0.54427   0.74555   1.000
loop_
    _geom_bond_atom_site_label_1
    _geom_bond_atom_site_label_2
    _geom_bond_distance
    _geom_bond_site_symmetry_2
    _ccdc_geom_bond_type
    H25    C9        1.14004      .   S
    H28    C14       1.14004      .   S
    C5     C9        1.34395      .   S
    C5     C6        1.47411      .   S
    C10    C14       1.34395  1_655   S
    C10    C11       1.47410      .   S
    C9     C17       1.42711      .   S
    C14    C2        1.42712      .   S
    H23    C6        1.14000      .   S
    H26    C11       1.14000  1_545   S
    C11    C13       1.42268  1_565   S
    C6     C8        1.42267      .   S
    C2     H21       1.13997      .   S
    C2     C3        1.43228      .   S
    C17    H30       1.13997      .   S
    C17    C18       1.43228      .   S
    C13    C3        1.41157  1_645   S
    C13    C12       1.43228      .   S
    C8     C18       1.41157      .   S
    C8     C7        1.43228      .   S
    C18    C16       1.42267      .   S
    C3     C1        1.42268  1_565   S
    H24    C7        1.13997      .   S
    H27    C12       1.13997      .   S
    C12    C4        1.42712      .   S
    C7     C19       1.42711      .   S
    C16    H29       1.14000      .   S
    C16    C15       1.47411      .   S
    C1     H20       1.14000  1_545   S
    C1     C0        1.47410      .   S
    C19    C15       1.34395      .   S
    C19    H31       1.14002      .   S
    C4     C0        1.34395  1_655   S
    C4     H22       1.14004      .   S
