# CIF file generated by openbabel 2.4.90, see http://openbabel.sf.net
data_I
_chemical_name_common ''
_cell_length_a 6.5472
_cell_length_b 7.5305
_cell_length_c 12.7118
_cell_angle_alpha 107.23
_cell_angle_beta 103.555
_cell_angle_gamma 90
_space_group_name_H-M_alt 'P 1'
_space_group_name_Hall 'P 1'
loop_
    _symmetry_equiv_pos_as_xyz
    x,y,z
loop_
    _atom_site_label
    _atom_site_type_symbol
    _atom_site_fract_x
    _atom_site_fract_y
    _atom_site_fract_z
    _atom_site_occupancy
    Zr0     Zr   0.00000   0.00000   0.00000   1.000
    Zr1     Zr   0.50000   0.00000   0.00000   1.000
    Zr2     Zr   0.15400   0.08900   0.82600   1.000
    Zr3     Zr   0.34600   0.26300   0.17400   1.000
    Zr4     Zr   0.84600   0.91100   0.17400   1.000
    Zr5     Zr   0.65400   0.73700   0.82600   1.000
    Zr6     Zr   0.06100   0.12850   0.90700   1.000
    Zr7     Zr   0.34840   0.07040   0.86440   1.000
    Zr8     Zr   0.43900   0.22150   0.09300   1.000
    Zr9     Zr   0.15160   0.20600   0.13560   1.000
    Zr10    Zr   0.93900   0.87150   0.09300   1.000
    Zr11    Zr   0.65160   0.92960   0.13560   1.000
    Zr12    Zr   0.56100   0.77850   0.90700   1.000
    Zr13    Zr   0.84840   0.79400   0.86440   1.000
    Zr14    Zr   0.25000   0.90100   0.00000   1.000
    Zr15    Zr   0.75000   0.09900   0.00000   1.000
    O16     O    0.37500   0.95050   0.00000   1.000
    O17     O    0.62500   0.04950   0.00000   1.000
    O18     O    0.46950   0.11075   0.04650   1.000
    O19     O    0.57580   0.96480   0.06780   1.000
    O20     O    0.42420   0.03520   0.93220   1.000
    O21     O    0.53050   0.88925   0.95350   1.000
    O22     O    0.12500   0.95050   0.00000   1.000
    O23     O    0.87500   0.04950   0.00000   1.000
    O24     O    0.96950   0.93575   0.04650   1.000
    O25     O    0.07580   0.10300   0.06780   1.000
    O26     O    0.92420   0.89700   0.93220   1.000
    O27     O    0.03050   0.06425   0.95350   1.000
    O28     O    0.39250   0.24225   0.13350   1.000
    O29     O    0.89250   0.89125   0.13350   1.000
    O30     O    0.24880   0.23450   0.15480   1.000
    O31     O    0.74880   0.92030   0.15480   1.000
    O32     O    0.25120   0.07970   0.84520   1.000
    O33     O    0.10750   0.10875   0.86650   1.000
    O34     O    0.75120   0.76550   0.84520   1.000
    O35     O    0.60750   0.75775   0.86650   1.000
    N36     N    0.50029   0.49988   0.49965   1.000
    O37     O    0.44450   0.40949   0.36543   1.000
    O38     O    0.55580   0.59039   0.63423   1.000
    N39     N    0.99992   0.00022   0.50045   1.000
    O40     O    0.94431   0.95616   0.36583   1.000
    O41     O    0.05561   0.04406   0.63463   1.000
loop_
    _geom_bond_atom_site_label_1
    _geom_bond_atom_site_label_2
    _geom_bond_distance
    _geom_bond_site_symmetry_2
    _ccdc_geom_bond_type
    Zr1    O16       0.89929  1_545   S
    Zr14   O16       0.89929      .   S
    Zr1    O17       0.89929      .   S
    Zr15   O17       0.89929      .   S
    Zr1    O18       0.92093      .   S
    Zr8    O18       0.92093      .   S
    Zr1    O19       0.99710  1_545   S
    Zr11   O19       0.99710      .   S
    Zr1    O20       0.99710  1_554   S
    Zr7    O20       0.99710      .   S
    Zr1    O21       0.92093  1_544   S
    Zr12   O21       0.92093      .   S
    Zr0    O22       0.89929  1_545   S
    Zr14   O22       0.89929      .   S
    Zr0    O23       0.89929  1_455   S
    Zr15   O23       0.89929      .   S
    Zr0    O24       0.92094  1_445   S
    Zr10   O24       0.92094      .   S
    Zr0    O25       0.99709      .   S
    Zr9    O25       0.99709      .   S
    Zr0    O26       0.99709  1_444   S
    Zr13   O26       0.99709      .   S
    Zr0    O27       0.92094  1_554   S
    Zr6    O27       0.92094      .   S
    Zr8    O28       0.63872      .   S
    Zr3    O28       0.63872      .   S
    Zr10   O29       0.63872      .   S
    Zr4    O29       0.63872      .   S
    Zr9    O30       0.63779      .   S
    Zr3    O30       0.63779      .   S
    Zr11   O31       0.63779      .   S
    Zr4    O31       0.63779      .   S
    Zr2    O32       0.63779      .   S
    Zr7    O32       0.63779      .   S
    Zr2    O33       0.63872      .   S
    Zr6    O33       0.63872      .   S
    Zr5    O34       0.63779      .   S
    Zr13   O34       0.63779      .   S
    Zr5    O35       0.63872      .   S
    Zr12   O35       0.63872      .   S
    N36    O37       1.58993      .   S
    Zr3    O37       2.28654      .   S
    N36    O38       1.59401      .   S
    Zr5    O38       2.29040      .   S
    N39    O40       1.59465  1_545   S
    Zr4    O40       2.29108      .   S
    N39    O41       1.58929  1_655   S
    Zr2    O41       2.28587      .   S
