# CIF file generated by openbabel 2.4.90, see http://openbabel.sf.net
data_I
_chemical_name_common ''
_cell_length_a 6.5472
_cell_length_b 7.5305
_cell_length_c 12.7118
_cell_angle_alpha 107.23
_cell_angle_beta 103.555
_cell_angle_gamma 90
_space_group_name_H-M_alt 'P 1'
_space_group_name_Hall 'P 1'
loop_
    _symmetry_equiv_pos_as_xyz
    x,y,z
loop_
    _atom_site_label
    _atom_site_type_symbol
    _atom_site_fract_x
    _atom_site_fract_y
    _atom_site_fract_z
    _atom_site_occupancy
    C0      C    0.00000   0.00000   0.00000   1.000
    C1      C    0.50000   0.00000   0.00000   1.000
    C2      C    0.06860   0.08680   0.71160   1.000
    C3      C    0.20100   0.00450   0.63300   1.000
    C4      C    0.22940   0.90170   0.43940   1.000
    C5      C    0.15400   0.08900   0.82600   1.000
    C6      C    0.09600   0.96100   0.51600   1.000
    C7      C    0.87100   0.13300   0.67800   1.000
    C8      C    0.43140   0.37520   0.28840   1.000
    C9      C    0.29900   0.37150   0.36700   1.000
    C10     C    0.27060   0.46230   0.56060   1.000
    C11     C    0.34600   0.26300   0.17400   1.000
    C12     C    0.40400   0.44500   0.48400   1.000
    C13     C    0.62900   0.45500   0.32200   1.000
    C14     C    0.93140   0.91320   0.28840   1.000
    C15     C    0.79900   0.99550   0.36700   1.000
    C16     C    0.77060   0.09830   0.56060   1.000
    C17     C    0.84600   0.91100   0.17400   1.000
    C18     C    0.90400   0.03900   0.48400   1.000
    C19     C    0.12900   0.86700   0.32200   1.000
    C20     C    0.56860   0.62480   0.71160   1.000
    C21     C    0.70100   0.62850   0.63300   1.000
    C22     C    0.72940   0.53770   0.43940   1.000
    C23     C    0.65400   0.73700   0.82600   1.000
    C24     C    0.59600   0.55500   0.51600   1.000
    C25     C    0.37100   0.54500   0.67800   1.000
    C26     C    0.06100   0.12850   0.90700   1.000
    C27     C    0.34840   0.07040   0.86440   1.000
    C28     C    0.43900   0.22150   0.09300   1.000
    C29     C    0.15160   0.20600   0.13560   1.000
    C30     C    0.93900   0.87150   0.09300   1.000
    C31     C    0.65160   0.92960   0.13560   1.000
    C32     C    0.56100   0.77850   0.90700   1.000
    C33     C    0.84840   0.79400   0.86440   1.000
    C34     C    0.25000   0.90100   0.00000   1.000
    C35     C    0.75000   0.09900   0.00000   1.000
    C36     C    0.37228   0.98088   0.66791   1.000
    C37     C    0.40317   0.88523   0.47373   1.000
    C38     C    0.77996   0.20144   0.74384   1.000
    C39     C    0.12772   0.31297   0.33209   1.000
    C40     C    0.09683   0.41150   0.52627   1.000
    C41     C    0.72004   0.45760   0.25616   1.000
    C42     C    0.62772   0.01912   0.33209   1.000
    C43     C    0.59561   0.11828   0.53353   1.000
    C44     C    0.22004   0.79856   0.25616   1.000
    C45     C    0.87228   0.68703   0.66791   1.000
    C46     C    0.90439   0.58475   0.46647   1.000
    C47     C    0.28343   0.54427   0.74555   1.000
    O48     O    0.37500   0.95050   0.00000   1.000
    O49     O    0.62500   0.04950   0.00000   1.000
    O50     O    0.46950   0.11075   0.04650   1.000
    O51     O    0.57580   0.96480   0.06780   1.000
    O52     O    0.42420   0.03520   0.93220   1.000
    O53     O    0.53050   0.88925   0.95350   1.000
    O54     O    0.12500   0.95050   0.00000   1.000
    O55     O    0.87500   0.04950   0.00000   1.000
    O56     O    0.96950   0.93575   0.04650   1.000
    O57     O    0.07580   0.10300   0.06780   1.000
    O58     O    0.92420   0.89700   0.93220   1.000
    O59     O    0.03050   0.06425   0.95350   1.000
    O60     O    0.39250   0.24225   0.13350   1.000
    O61     O    0.89250   0.89125   0.13350   1.000
    O62     O    0.24880   0.23450   0.15480   1.000
    O63     O    0.74880   0.92030   0.15480   1.000
    O64     O    0.38870   0.31910   0.23120   1.000
    O65     O    0.88870   0.91210   0.23120   1.000
    O66     O    0.67452   0.45630   0.28908   1.000
    O67     O    0.17452   0.83278   0.28908   1.000
    O68     O    0.53020   0.41510   0.30520   1.000
    O69     O    0.36520   0.37335   0.32770   1.000
    O70     O    0.03020   0.89010   0.30520   1.000
    O71     O    0.86520   0.95435   0.32770   1.000
    O72     O    0.67920   0.49635   0.38070   1.000
    O73     O    0.17920   0.88435   0.38070   1.000
    O74     O    0.21336   0.34223   0.34954   1.000
    O75     O    0.71336   0.00731   0.34954   1.000
    O76     O    0.85150   0.01725   0.42550   1.000
    O77     O    0.35150   0.40825   0.42550   1.000
    O78     O    0.31629   0.89346   0.45657   1.000
    O79     O    0.16270   0.93135   0.47770   1.000
    O80     O    0.81690   0.56123   0.45294   1.000
    O81     O    0.66270   0.54635   0.47770   1.000
    O82     O    0.00000   0.00000   0.50000   1.000
    O83     O    0.83730   0.06865   0.52230   1.000
    O84     O    0.50000   0.50000   0.50000   1.000
    O85     O    0.33730   0.45365   0.52230   1.000
    O86     O    0.64850   0.59175   0.57450   1.000
    O87     O    0.14850   0.98275   0.57450   1.000
    O88     O    0.18372   0.43690   0.54344   1.000
    O89     O    0.68311   0.10829   0.54707   1.000
    O90     O    0.82080   0.11565   0.61930   1.000
    O91     O    0.32080   0.50365   0.61930   1.000
    O92     O    0.78664   0.65776   0.65046   1.000
    O93     O    0.63480   0.62665   0.67230   1.000
    O94     O    0.28664   0.99269   0.65046   1.000
    O95     O    0.13480   0.04565   0.67230   1.000
    O96     O    0.46980   0.58490   0.69480   1.000
    O97     O    0.32722   0.54463   0.71177   1.000
    O98     O    0.96980   0.10990   0.69480   1.000
    O99     O    0.82548   0.16722   0.71092   1.000
    O100    O    0.11130   0.08790   0.76880   1.000
    O101    O    0.61130   0.68090   0.76880   1.000
    O102    O    0.25120   0.07970   0.84520   1.000
    O103    O    0.10750   0.10875   0.86650   1.000
    O104    O    0.75120   0.76550   0.84520   1.000
    O105    O    0.60750   0.75775   0.86650   1.000
loop_
    _geom_bond_atom_site_label_1
    _geom_bond_atom_site_label_2
    _geom_bond_distance
    _geom_bond_site_symmetry_2
    _ccdc_geom_bond_type
    C1     O48       0.89929  1_545   S
    C34    O48       0.89929      .   S
    C1     O49       0.89929      .   S
    C35    O49       0.89929      .   S
    C1     O50       0.92093      .   S
    C28    O50       0.92093      .   S
    C1     O51       0.99710  1_545   S
    C31    O51       0.99710      .   S
    C1     O52       0.99710  1_554   S
    C27    O52       0.99710      .   S
    C1     O53       0.92093  1_544   S
    C32    O53       0.92093      .   S
    C0     O54       0.89929  1_545   S
    C34    O54       0.89929      .   S
    C0     O55       0.89929  1_455   S
    C35    O55       0.89929      .   S
    C0     O56       0.92094  1_445   S
    C30    O56       0.92094      .   S
    C0     O57       0.99709      .   S
    C29    O57       0.99709      .   S
    C0     O58       0.99709  1_444   S
    C33    O58       0.99709      .   S
    C0     O59       0.92094  1_554   S
    C26    O59       0.92094      .   S
    C28    O60       0.63872      .   S
    C11    O60       0.63872      .   S
    C30    O61       0.63872      .   S
    C17    O61       0.63872      .   S
    C29    O62       0.63779      .   S
    C11    O62       0.63779      .   S
    C31    O63       0.63779      .   S
    C17    O63       0.63779      .   S
    C11    O64       0.71278      .   S
    C8     O64       0.71278      .   S
    C17    O65       0.71279      .   S
    C14    O65       0.71279      .   S
    C41    O66       0.57002      .   S
    C13    O66       0.57002      .   S
    C44    O67       0.57002      .   S
    C19    O67       0.57002      .   S
    C8     O68       0.67198      .   S
    C13    O68       0.67198      .   S
    C8     O69       0.73705      .   S
    C9     O69       0.73705      .   S
    C14    O70       0.67198  1_655   S
    C19    O70       0.67198      .   S
    C14    O71       0.73705      .   S
    C15    O71       0.73705      .   S
    C13    O72       0.71356      .   S
    C22    O72       0.71356      .   S
    C19    O73       0.71356      .   S
    C4     O73       0.71356      .   S
    C39    O74       0.57000      .   S
    C9     O74       0.57000      .   S
    C42    O75       0.57000      .   S
    C15    O75       0.57000  1_565   S
    C15    O76       0.71134  1_565   S
    C18    O76       0.71134      .   S
    C9     O77       0.71134      .   S
    C12    O77       0.71134      .   S
    C4     O78       0.56999      .   S
    C37    O78       0.56999      .   S
    C4     O79       0.71614      .   S
    C6     O79       0.71614      .   S
    C22    O80       0.56998      .   S
    C46    O80       0.56998      .   S
    C22    O81       0.71614      .   S
    C24    O81       0.71614      .   S
    C18    O82       0.70579  1_655   S
    C6     O82       0.70579  1_565   S
    C18    O83       0.71614      .   S
    C16    O83       0.71614      .   S
    C12    O84       0.70579      .   S
    C24    O84       0.70579      .   S
    C12    O85       0.71614      .   S
    C10    O85       0.71614      .   S
    C24    O86       0.71134      .   S
    C21    O86       0.71134      .   S
    C6     O87       0.71134      .   S
    C3     O87       0.71134  1_545   S
    C40    O88       0.56998      .   S
    C10    O88       0.56998      .   S
    C43    O89       0.56999      .   S
    C16    O89       0.56999      .   S
    C16    O90       0.71356      .   S
    C7     O90       0.71356      .   S
    C10    O91       0.71356      .   S
    C25    O91       0.71356      .   S
    C21    O92       0.57000      .   S
    C45    O92       0.57000      .   S
    C21    O93       0.73705      .   S
    C20    O93       0.73705      .   S
    C3     O94       0.57000  1_545   S
    C36    O94       0.57000      .   S
    C3     O95       0.73705      .   S
    C2     O95       0.73705      .   S
    C25    O96       0.67198      .   S
    C20    O96       0.67198      .   S
    C25    O97       0.57001      .   S
    C47    O97       0.57001      .   S
    C7     O98       0.67198      .   S
    C2     O98       0.67198  1_455   S
    C7     O99       0.57002      .   S
    C38    O99       0.57002      .   S
    C2     O100      0.71279      .   S
    C5     O100      0.71279      .   S
    C20    O101      0.71278      .   S
    C23    O101      0.71278      .   S
    C5     O102      0.63779      .   S
    C27    O102      0.63779      .   S
    C5     O103      0.63872      .   S
    C26    O103      0.63872      .   S
    C23    O104      0.63779      .   S
    C33    O104      0.63779      .   S
    C23    O105      0.63872      .   S
    C32    O105      0.63872      .   S
