# CIF file generated by openbabel 2.4.90, see http://openbabel.sf.net
data_I
_chemical_name_common 'image0'
_cell_length_a 24.7318
_cell_length_b 24.7318
_cell_length_c 24.7318
_cell_angle_alpha 127.653
_cell_angle_beta 127.653
_cell_angle_gamma 77.1881
_space_group_name_H-M_alt 'P 1'
_space_group_name_Hall 'P 1'
loop_
    _symmetry_equiv_pos_as_xyz
    x,y,z
loop_
    _atom_site_label
    _atom_site_type_symbol
    _atom_site_fract_x
    _atom_site_fract_y
    _atom_site_fract_z
    _atom_site_occupancy
    Zn0     Zn   0.02843   0.55264   0.00373   1.000
    C1      C    0.67127   0.49117   0.66770   1.000
    C2      C    0.80425   0.50915   0.80950   1.000
    C3      C    0.87325   0.51255   0.88210   1.000
    C4      C    0.60238   0.48688   0.59510   1.000
    C5      C    0.20026   0.62516   0.03990   1.000
    C6      C    0.09400   0.63040   0.93040   1.000
    C7      C    0.01020   0.25280   0.70800   1.000
    C8      C    0.72820   0.54480   0.71940   1.000
    C9      C    0.79284   0.55294   0.78850   1.000
    C10     C    0.00553   0.31743   0.76370   1.000
    C11     C    0.14750   0.72400   0.08170   1.000
    N12     N    0.16224   0.67314   0.01890   1.000
    Cl13    Cl   0.99082   0.14068   0.76508   1.000
    Cl14    Cl   0.01102   0.38373   0.76001   1.000
    O15     O    0.86935   0.49565   0.91790   1.000
    O16     O    0.92840   0.53080   0.89880   1.000
    O17     O    0.54716   0.47156   0.58000   1.000
    O18     O    0.94963   0.39453   0.89470   1.000
    H19     H    0.21020   0.58501   0.99093   1.000
    H20     H    0.25275   0.65742   0.10774   1.000
    H21     H    0.06367   0.66664   0.91421   1.000
    H22     H    0.10475   0.59162   0.88192   1.000
    H23     H    0.01827   0.24506   0.66318   1.000
    H24     H    0.72167   0.58252   0.70482   1.000
    H25     H    0.19935   0.75657   0.15018   1.000
    H26     H    0.11793   0.76043   0.06542   1.000
    Zn27    Zn   0.54891   0.02470   0.99627   1.000
    C28     C    0.82347   0.00357   0.33230   1.000
    C29     C    0.69965   0.99475   0.19050   1.000
    C30     C    0.63045   0.99115   0.11790   1.000
    C31     C    0.89178   0.00728   0.40490   1.000
    C32     C    0.58526   0.16036   0.96010   1.000
    C33     C    0.70000   0.16360   0.06960   1.000
    C34     C    0.54480   0.30220   0.29200   1.000
    C35     C    0.82540   0.00880   0.28060   1.000
    C36     C    0.76444   0.00434   0.21150   1.000
    C37     C    0.55373   0.24183   0.23630   1.000
    C38     C    0.64230   0.06580   0.91830   1.000
    N39     N    0.65424   0.14334   0.98110   1.000
    Cl40    Cl   0.37560   0.22574   0.23492   1.000
    Cl41    Cl   0.62372   0.25101   0.23999   1.000
    O42     O    0.57775   0.95145   0.08210   1.000
    O43     O    0.63200   0.02960   0.10120   1.000
    O44     O    0.89156   0.96716   0.42000   1.000
    O45     O    0.49983   0.05493   0.10530   1.000
    H46     H    0.59408   0.21927   0.00907   1.000
    H47     H    0.54968   0.14501   0.89226   1.000
    H48     H    0.75243   0.14946   0.08579   1.000
    H49     H    0.70970   0.22283   0.11808   1.000
    H50     H    0.58188   0.35510   0.33682   1.000
    H51     H    0.87770   0.01685   0.29518   1.000
    H52     H    0.60638   0.04917   0.84982   1.000
    H53     H    0.69500   0.05251   0.93458   1.000
    Zn54    Zn   0.30264   0.79891   0.02421   1.000
    C55     C    0.24117   0.07347   0.31990   1.000
    C56     C    0.25915   0.94965   0.20490   1.000
    C57     C    0.26255   0.88045   0.13930   1.000
    C58     C    0.23688   0.14178   0.38450   1.000
    C59     C    0.37516   0.83526   0.92490   1.000
    C60     C    0.38040   0.95000   0.03640   1.000
    C61     C    0.00280   0.79480   0.74260   1.000
    C62     C    0.29480   0.07540   0.31660   1.000
    C63     C    0.30294   0.01444   0.26010   1.000
    C64     C    0.06743   0.80373   0.81190   1.000
    C65     C    0.47400   0.89230   0.07650   1.000
    N66     N    0.42314   0.90424   0.01090   1.000
    Cl67    Cl   0.89068   0.62560   0.64986   1.000
    Cl68    Cl   0.13373   0.87372   0.87271   1.000
    O69     O    0.24565   0.82775   0.12630   1.000
    O70     O    0.28080   0.88200   0.10240   1.000
    O71     O    0.22156   0.14156   0.42440   1.000
    O72     O    0.14453   0.74983   0.94490   1.000
    H73     H    0.33501   0.84408   0.87480   1.000
    H74     H    0.40742   0.79968   0.90467   1.000
    H75     H    0.41664   0.00243   0.10297   1.000
    H76     H    0.34162   0.95970   0.98687   1.000
    H77     H    0.99506   0.83188   0.72678   1.000
    H78     H    0.33252   0.12770   0.36085   1.000
    H79     H    0.50657   0.85638   0.05722   1.000
    H80     H    0.51043   0.94500   0.14249   1.000
    Zn81    Zn   0.77470   0.27843   0.97579   1.000
    C82     C    0.75357   0.92127   0.68010   1.000
    C83     C    0.74475   0.05425   0.79510   1.000
    C84     C    0.74115   0.12325   0.86070   1.000
    C85     C    0.75728   0.85238   0.61550   1.000
    C86     C    0.91036   0.45026   0.07510   1.000
    C87     C    0.91360   0.34400   0.96360   1.000
    C88     C    0.05220   0.26020   0.25740   1.000
    C89     C    0.75880   0.97820   0.68340   1.000
    C90     C    0.75434   0.04284   0.73990   1.000
    C91     C    0.99183   0.25553   0.18810   1.000
    C92     C    0.81580   0.39750   0.92350   1.000
    N93     N    0.89334   0.41224   0.98910   1.000
    Cl94    Cl   0.97574   0.24082   0.35014   1.000
    Cl95    Cl   0.00101   0.26102   0.12729   1.000
    O96     O    0.70145   0.11935   0.87370   1.000
    O97     O    0.77960   0.17840   0.89760   1.000
    O98     O    0.71716   0.79716   0.57560   1.000
    O99     O    0.80493   0.19963   0.05510   1.000
    H100    H    0.96927   0.46020   0.12520   1.000
    H101    H    0.89501   0.50275   0.09533   1.000
    H102    H    0.89946   0.31367   0.89703   1.000
    H103    H    0.97283   0.35475   0.01313   1.000
    H104    H    0.10510   0.26827   0.27322   1.000
    H105    H    0.76685   0.97167   0.63915   1.000
    H106    H    0.79917   0.44935   0.94278   1.000
    H107    H    0.80251   0.36793   0.85751   1.000
    Zn108   Zn   0.70109   0.19736   0.97579   1.000
    C109    C    0.42653   0.25883   0.68010   1.000
    C110    C    0.55035   0.24085   0.79510   1.000
    C111    C    0.61955   0.23745   0.86070   1.000
    C112    C    0.35822   0.26312   0.61550   1.000
    C113    C    0.66474   0.12484   0.07510   1.000
    C114    C    0.55000   0.11960   0.96360   1.000
    C115    C    0.70520   0.49720   0.25740   1.000
    C116    C    0.42460   0.20520   0.68340   1.000
    C117    C    0.48556   0.19706   0.73990   1.000
    C118    C    0.69627   0.43257   0.18810   1.000
    C119    C    0.60770   0.02600   0.92350   1.000
    N120    N    0.59576   0.07686   0.98910   1.000
    Cl121   Cl   0.87440   0.60932   0.35014   1.000
    Cl122   Cl   0.62628   0.36627   0.12729   1.000
    O123    O    0.67225   0.25435   0.87370   1.000
    O124    O    0.61800   0.21920   0.89760   1.000
    O125    O    0.35844   0.27844   0.57560   1.000
    O126    O    0.75017   0.35547   0.05510   1.000
    H127    H    0.65592   0.16499   0.12520   1.000
    H128    H    0.70032   0.09258   0.09533   1.000
    H129    H    0.49757   0.08336   0.89703   1.000
    H130    H    0.54030   0.15838   0.01313   1.000
    H131    H    0.66812   0.50494   0.27322   1.000
    H132    H    0.37230   0.16748   0.63915   1.000
    H133    H    0.64362   0.99343   0.94278   1.000
    H134    H    0.55500   0.98957   0.85751   1.000
    Zn135   Zn   0.22157   0.72530   0.02421   1.000
    C136    C    0.57873   0.74643   0.31990   1.000
    C137    C    0.44575   0.75525   0.20490   1.000
    C138    C    0.37675   0.75885   0.13930   1.000
    C139    C    0.64762   0.74272   0.38450   1.000
    C140    C    0.04974   0.58964   0.92490   1.000
    C141    C    0.15600   0.58640   0.03640   1.000
    C142    C    0.23980   0.44780   0.74260   1.000
    C143    C    0.52180   0.74120   0.31660   1.000
    C144    C    0.45716   0.74566   0.26010   1.000
    C145    C    0.24447   0.50817   0.81190   1.000
    C146    C    0.10250   0.68420   0.07650   1.000
    N147    N    0.08776   0.60666   0.01090   1.000
    Cl148   Cl   0.25918   0.52426   0.64986   1.000
    Cl149   Cl   0.23898   0.49899   0.87271   1.000
    O150    O    0.38065   0.79855   0.12630   1.000
    O151    O    0.32160   0.72040   0.10240   1.000
    O152    O    0.70284   0.78284   0.42440   1.000
    O153    O    0.30037   0.69507   0.94490   1.000
    H154    H    0.03980   0.53073   0.87480   1.000
    H155    H    0.99725   0.60499   0.90467   1.000
    H156    H    0.18633   0.60054   0.10297   1.000
    H157    H    0.14525   0.52717   0.98687   1.000
    H158    H    0.23173   0.39490   0.72678   1.000
    H159    H    0.52833   0.73315   0.36085   1.000
    H160    H    0.05065   0.70083   0.05722   1.000
    H161    H    0.13207   0.69749   0.14249   1.000
    Zn162   Zn   0.47530   0.95109   0.00373   1.000
    C163    C    0.49643   0.67653   0.66770   1.000
    C164    C    0.50525   0.80035   0.80950   1.000
    C165    C    0.50885   0.86955   0.88210   1.000
    C166    C    0.49272   0.60822   0.59510   1.000
    C167    C    0.33964   0.91474   0.03990   1.000
    C168    C    0.33640   0.80000   0.93040   1.000
    C169    C    0.19780   0.95520   0.70800   1.000
    C170    C    0.49120   0.67460   0.71940   1.000
    C171    C    0.49566   0.73556   0.78850   1.000
    C172    C    0.25817   0.94627   0.76370   1.000
    C173    C    0.43420   0.85770   0.08170   1.000
    N174    N    0.35666   0.84576   0.01890   1.000
    Cl175   Cl   0.27426   0.12440   0.76508   1.000
    Cl176   Cl   0.24899   0.87628   0.76001   1.000
    O177    O    0.54855   0.92225   0.91790   1.000
    O178    O    0.47040   0.86800   0.89880   1.000
    O179    O    0.53284   0.60844   0.58000   1.000
    O180    O    0.44507   0.00017   0.89470   1.000
    H181    H    0.28073   0.90592   0.99093   1.000
    H182    H    0.35499   0.95032   0.10774   1.000
    H183    H    0.35054   0.74757   0.91421   1.000
    H184    H    0.27717   0.79030   0.88192   1.000
    H185    H    0.14490   0.91812   0.66318   1.000
    H186    H    0.48315   0.62230   0.70482   1.000
    H187    H    0.45083   0.89362   0.15018   1.000
    H188    H    0.44749   0.80500   0.06542   1.000
    Zn189   Zn   0.94736   0.47157   0.99627   1.000
    C190    C    0.00883   0.82873   0.33230   1.000
    C191    C    0.99085   0.69575   0.19050   1.000
    C192    C    0.98745   0.62675   0.11790   1.000
    C193    C    0.01312   0.89762   0.40490   1.000
    C194    C    0.87484   0.29974   0.96010   1.000
    C195    C    0.86960   0.40600   0.06960   1.000
    C196    C    0.24720   0.48980   0.29200   1.000
    C197    C    0.95520   0.77180   0.28060   1.000
    C198    C    0.94706   0.70716   0.21150   1.000
    C199    C    0.18257   0.49447   0.23630   1.000
    C200    C    0.77600   0.35250   0.91830   1.000
    N201    N    0.82686   0.33776   0.98110   1.000
    Cl202   Cl   0.35932   0.50918   0.23492   1.000
    Cl203   Cl   0.11627   0.48898   0.23999   1.000
    O204    O    0.00435   0.63065   0.08210   1.000
    O205    O    0.96920   0.57160   0.10120   1.000
    O206    O    0.02844   0.95284   0.42000   1.000
    O207    O    0.10547   0.55037   0.10530   1.000
    H208    H    0.91499   0.28980   0.00907   1.000
    H209    H    0.84258   0.24725   0.89226   1.000
    H210    H    0.83336   0.43633   0.08579   1.000
    H211    H    0.90838   0.39525   0.11808   1.000
    H212    H    0.25494   0.48173   0.33682   1.000
    H213    H    0.91748   0.77833   0.29518   1.000
    H214    H    0.74343   0.30065   0.84982   1.000
    H215    H    0.73957   0.38207   0.93458   1.000
    Zn216   Zn   0.72157   0.69736   0.49627   1.000
    C217    C    0.07873   0.75883   0.83230   1.000
    C218    C    0.94575   0.74085   0.69050   1.000
    C219    C    0.87675   0.73745   0.61790   1.000
    C220    C    0.14762   0.76312   0.90490   1.000
    C221    C    0.54974   0.62484   0.46010   1.000
    C222    C    0.65600   0.61960   0.56960   1.000
    C223    C    0.73980   0.99720   0.79200   1.000
    C224    C    0.02180   0.70520   0.78060   1.000
    C225    C    0.95716   0.69706   0.71150   1.000
    C226    C    0.74447   0.93257   0.73630   1.000
    C227    C    0.60250   0.52600   0.41830   1.000
    N228    N    0.58776   0.57686   0.48110   1.000
    Cl229   Cl   0.75918   0.10932   0.73492   1.000
    Cl230   Cl   0.73898   0.86627   0.73999   1.000
    O231    O    0.88065   0.75435   0.58210   1.000
    O232    O    0.82160   0.71920   0.60120   1.000
    O233    O    0.20284   0.77844   0.92000   1.000
    O234    O    0.80037   0.85547   0.60530   1.000
    H235    H    0.53980   0.66499   0.50907   1.000
    H236    H    0.49725   0.59258   0.39226   1.000
    H237    H    0.68633   0.58336   0.58579   1.000
    H238    H    0.64525   0.65838   0.61808   1.000
    H239    H    0.73173   0.00494   0.83682   1.000
    H240    H    0.02833   0.66748   0.79518   1.000
    H241    H    0.55065   0.49343   0.34982   1.000
    H242    H    0.63207   0.48957   0.43458   1.000
    Zn243   Zn   0.20109   0.22530   0.50373   1.000
    C244    C    0.92653   0.24643   0.16770   1.000
    C245    C    0.05035   0.25525   0.30950   1.000
    C246    C    0.11955   0.25885   0.38210   1.000
    C247    C    0.85822   0.24272   0.09510   1.000
    C248    C    0.16474   0.08964   0.53990   1.000
    C249    C    0.05000   0.08640   0.43040   1.000
    C250    C    0.20520   0.94780   0.20800   1.000
    C251    C    0.92460   0.24120   0.21940   1.000
    C252    C    0.98556   0.24566   0.28850   1.000
    C253    C    0.19627   0.00817   0.26370   1.000
    C254    C    0.10770   0.18420   0.58170   1.000
    N255    N    0.09576   0.10666   0.51890   1.000
    Cl256   Cl   0.37440   0.02426   0.26508   1.000
    Cl257   Cl   0.12628   0.99899   0.26001   1.000
    O258    O    0.17225   0.29855   0.41790   1.000
    O259    O    0.11800   0.22040   0.39880   1.000
    O260    O    0.85844   0.28284   0.08000   1.000
    O261    O    0.25017   0.19507   0.39470   1.000
    H262    H    0.15592   0.03073   0.49093   1.000
    H263    H    0.20032   0.10499   0.60774   1.000
    H264    H    0.99757   0.10054   0.41421   1.000
    H265    H    0.04030   0.02717   0.38192   1.000
    H266    H    0.16812   0.89490   0.16318   1.000
    H267    H    0.87230   0.23315   0.20482   1.000
    H268    H    0.14362   0.20083   0.65018   1.000
    H269    H    0.05500   0.19749   0.56542   1.000
    Zn270   Zn   0.44736   0.45109   0.47579   1.000
    C271    C    0.50883   0.17653   0.18010   1.000
    C272    C    0.49085   0.30035   0.29510   1.000
    C273    C    0.48745   0.36955   0.36070   1.000
    C274    C    0.51312   0.10822   0.11550   1.000
    C275    C    0.37484   0.41474   0.57510   1.000
    C276    C    0.36960   0.30000   0.46360   1.000
    C277    C    0.74720   0.45520   0.75740   1.000
    C278    C    0.45520   0.17460   0.18340   1.000
    C279    C    0.44706   0.23556   0.23990   1.000
    C280    C    0.68257   0.44627   0.68810   1.000
    C281    C    0.27600   0.35770   0.42350   1.000
    N282    N    0.32686   0.34576   0.48910   1.000
    Cl283   Cl   0.85932   0.62440   0.85014   1.000
    Cl284   Cl   0.61627   0.37628   0.62729   1.000
    O285    O    0.50435   0.42225   0.37370   1.000
    O286    O    0.46920   0.36800   0.39760   1.000
    O287    O    0.52844   0.10844   0.07560   1.000
    O288    O    0.60547   0.50017   0.55510   1.000
    H289    H    0.41499   0.40592   0.62520   1.000
    H290    H    0.34258   0.45032   0.59533   1.000
    H291    H    0.33336   0.24757   0.39703   1.000
    H292    H    0.40838   0.29030   0.51313   1.000
    H293    H    0.75494   0.41812   0.77322   1.000
    H294    H    0.41748   0.12230   0.13915   1.000
    H295    H    0.24343   0.39362   0.44278   1.000
    H296    H    0.23957   0.30500   0.35751   1.000
    Zn297   Zn   0.97530   0.97157   0.52421   1.000
    C298    C    0.99643   0.32873   0.81990   1.000
    C299    C    0.00525   0.19575   0.70490   1.000
    C300    C    0.00885   0.12675   0.63930   1.000
    C301    C    0.99272   0.39762   0.88450   1.000
    C302    C    0.83964   0.79974   0.42490   1.000
    C303    C    0.83640   0.90600   0.53640   1.000
    C304    C    0.69780   0.98980   0.24260   1.000
    C305    C    0.99120   0.27180   0.81660   1.000
    C306    C    0.99566   0.20716   0.76010   1.000
    C307    C    0.75817   0.99447   0.31190   1.000
    C308    C    0.93420   0.85250   0.57650   1.000
    N309    N    0.85666   0.83776   0.51090   1.000
    Cl310   Cl   0.77426   0.00918   0.14986   1.000
    Cl311   Cl   0.74899   0.98898   0.37271   1.000
    O312    O    0.04855   0.13065   0.62630   1.000
    O313    O    0.97040   0.07160   0.60240   1.000
    O314    O    0.03284   0.45284   0.92440   1.000
    O315    O    0.94507   0.05037   0.44490   1.000
    H316    H    0.78073   0.78980   0.37480   1.000
    H317    H    0.85499   0.74725   0.40467   1.000
    H318    H    0.85054   0.93633   0.60297   1.000
    H319    H    0.77717   0.89525   0.48687   1.000
    H320    H    0.64490   0.98173   0.22678   1.000
    H321    H    0.98315   0.27833   0.86085   1.000
    H322    H    0.95083   0.80065   0.55722   1.000
    H323    H    0.94749   0.88207   0.64249   1.000
    Zn324   Zn   0.04891   0.05264   0.52421   1.000
    C325    C    0.32347   0.99117   0.81990   1.000
    C326    C    0.19965   0.00915   0.70490   1.000
    C327    C    0.13045   0.01255   0.63930   1.000
    C328    C    0.39178   0.98688   0.88450   1.000
    C329    C    0.08526   0.12516   0.42490   1.000
    C330    C    0.20000   0.13040   0.53640   1.000
    C331    C    0.04480   0.75280   0.24260   1.000
    C332    C    0.32540   0.04480   0.81660   1.000
    C333    C    0.26444   0.05294   0.76010   1.000
    C334    C    0.05373   0.81743   0.31190   1.000
    C335    C    0.14230   0.22400   0.57650   1.000
    N336    N    0.15424   0.17314   0.51090   1.000
    Cl337   Cl   0.87560   0.64068   0.14986   1.000
    Cl338   Cl   0.12372   0.88373   0.37271   1.000
    O339    O    0.07775   0.99565   0.62630   1.000
    O340    O    0.13200   0.03080   0.60240   1.000
    O341    O    0.39156   0.97156   0.92440   1.000
    O342    O    0.99983   0.89453   0.44490   1.000
    H343    H    0.09408   0.08501   0.37480   1.000
    H344    H    0.04968   0.15742   0.40467   1.000
    H345    H    0.25243   0.16664   0.60297   1.000
    H346    H    0.20970   0.09162   0.48687   1.000
    H347    H    0.08188   0.74506   0.22678   1.000
    H348    H    0.37770   0.08252   0.86085   1.000
    H349    H    0.10638   0.25657   0.55722   1.000
    H350    H    0.19500   0.26043   0.64249   1.000
    Zn351   Zn   0.52843   0.52470   0.47579   1.000
    C352    C    0.17127   0.50357   0.18010   1.000
    C353    C    0.30425   0.49475   0.29510   1.000
    C354    C    0.37325   0.49115   0.36070   1.000
    C355    C    0.10238   0.50728   0.11550   1.000
    C356    C    0.70026   0.66036   0.57510   1.000
    C357    C    0.59400   0.66360   0.46360   1.000
    C358    C    0.51020   0.80220   0.75740   1.000
    C359    C    0.22820   0.50880   0.18340   1.000
    C360    C    0.29284   0.50434   0.23990   1.000
    C361    C    0.50553   0.74183   0.68810   1.000
    C362    C    0.64750   0.56580   0.42350   1.000
    N363    N    0.66224   0.64334   0.48910   1.000
    Cl364   Cl   0.49082   0.72574   0.85014   1.000
    Cl365   Cl   0.51102   0.75101   0.62729   1.000
    O366    O    0.36935   0.45145   0.37370   1.000
    O367    O    0.42840   0.52960   0.39760   1.000
    O368    O    0.04716   0.46716   0.07560   1.000
    O369    O    0.44963   0.55493   0.55510   1.000
    H370    H    0.71020   0.71927   0.62520   1.000
    H371    H    0.75275   0.64501   0.59533   1.000
    H372    H    0.56367   0.64946   0.39703   1.000
    H373    H    0.60475   0.72283   0.51313   1.000
    H374    H    0.51827   0.85510   0.77322   1.000
    H375    H    0.22167   0.51685   0.13915   1.000
    H376    H    0.69935   0.54917   0.44278   1.000
    H377    H    0.61793   0.55251   0.35751   1.000
    Zn378   Zn   0.27470   0.29891   0.49627   1.000
    C379    C    0.25357   0.57347   0.83230   1.000
    C380    C    0.24475   0.44965   0.69050   1.000
    C381    C    0.24115   0.38045   0.61790   1.000
    C382    C    0.25728   0.64178   0.90490   1.000
    C383    C    0.41036   0.33526   0.46010   1.000
    C384    C    0.41360   0.45000   0.56960   1.000
    C385    C    0.55220   0.29480   0.79200   1.000
    C386    C    0.25880   0.57540   0.78060   1.000
    C387    C    0.25434   0.51444   0.71150   1.000
    C388    C    0.49183   0.30373   0.73630   1.000
    C389    C    0.31580   0.39230   0.41830   1.000
    N390    N    0.39334   0.40424   0.48110   1.000
    Cl391   Cl   0.47574   0.12560   0.73492   1.000
    Cl392   Cl   0.50101   0.37372   0.73999   1.000
    O393    O    0.20145   0.32775   0.58210   1.000
    O394    O    0.27960   0.38200   0.60120   1.000
    O395    O    0.21716   0.64156   0.92000   1.000
    O396    O    0.30493   0.24983   0.60530   1.000
    H397    H    0.46927   0.34408   0.50907   1.000
    H398    H    0.39501   0.29968   0.39226   1.000
    H399    H    0.39946   0.50243   0.58579   1.000
    H400    H    0.47283   0.45970   0.61808   1.000
    H401    H    0.60510   0.33188   0.83682   1.000
    H402    H    0.26685   0.62770   0.79518   1.000
    H403    H    0.29917   0.35638   0.34982   1.000
    H404    H    0.30251   0.44500   0.43458   1.000
    Zn405   Zn   0.80264   0.77843   0.50373   1.000
    C406    C    0.74117   0.42127   0.16770   1.000
    C407    C    0.75915   0.55425   0.30950   1.000
    C408    C    0.76255   0.62325   0.38210   1.000
    C409    C    0.73688   0.35238   0.09510   1.000
    C410    C    0.87516   0.95026   0.53990   1.000
    C411    C    0.88040   0.84400   0.43040   1.000
    C412    C    0.50280   0.76020   0.20800   1.000
    C413    C    0.79480   0.47820   0.21940   1.000
    C414    C    0.80294   0.54284   0.28850   1.000
    C415    C    0.56743   0.75553   0.26370   1.000
    C416    C    0.97400   0.89750   0.58170   1.000
    N417    N    0.92314   0.91224   0.51890   1.000
    Cl418   Cl   0.39068   0.74082   0.26508   1.000
    Cl419   Cl   0.63373   0.76102   0.26001   1.000
    O420    O    0.74565   0.61935   0.41790   1.000
    O421    O    0.78080   0.67840   0.39880   1.000
    O422    O    0.72156   0.29716   0.08000   1.000
    O423    O    0.64453   0.69963   0.39470   1.000
    H424    H    0.83501   0.96020   0.49093   1.000
    H425    H    0.90742   0.00275   0.60774   1.000
    H426    H    0.91664   0.81367   0.41421   1.000
    H427    H    0.84162   0.85475   0.38192   1.000
    H428    H    0.49506   0.76827   0.16318   1.000
    H429    H    0.83252   0.47167   0.20482   1.000
    H430    H    0.00657   0.94935   0.65018   1.000
    H431    H    0.01043   0.86793   0.56542   1.000
loop_
    _geom_bond_atom_site_label_1
    _geom_bond_atom_site_label_2
    _geom_bond_distance
    _geom_bond_site_symmetry_2
    _ccdc_geom_bond_type
    Zn0    N147      2.05707      .   S
    Zn0    O204      2.04100      .   S
    Zn0    O207      2.05449      .   S
    Zn0    O16       2.04522  1_454   S
    Zn0    O314      2.04425  1_554   S
    Zn162  N66       2.05707      .   S
    Zn162  O42       2.04099      .   S
    Zn162  O45       2.05448  1_565   S
    Zn162  O178      2.04522  1_554   S
    Zn162  O341      2.04426  1_554   S
    H46    C32       1.13993  1_554   S
    H208   C194      1.13993  1_554   S
    N66    C60       1.48586      .   S
    N66    C65       1.49295      .   S
    N66    C59       1.49112  1_554   S
    N147   C141      1.48585      .   S
    N147   C146      1.49295      .   S
    N147   C140      1.49112  1_554   S
    H130   C114      1.13998  1_554   S
    H103   C87       1.13998  1_554   S
    N12    Zn135     2.05707      .   S
    N12    C5        1.49113      .   S
    N12    C11       1.49295      .   S
    N12    C6        1.48585  1_554   S
    N174   Zn54      2.05707      .   S
    N174   C167      1.49112      .   S
    N174   C173      1.49295      .   S
    N174   C168      1.48585  1_554   S
    Zn54   O70       2.04522      .   S
    Zn54   O150      2.04099      .   S
    Zn54   O233      2.04425  1_554   S
    Zn54   O153      2.05449  1_554   S
    Zn135  O151      2.04522      .   S
    Zn135  O69       2.04099      .   S
    Zn135  O395      2.04425  1_554   S
    Zn135  O72       2.05449  1_554   S
    C60    C167      1.54041      .   S
    C60    H75       1.14001  1_565   S
    C60    H76       1.13998  1_554   S
    C141   C5        1.54041      .   S
    C141   H156      1.14002      .   S
    C141   H157      1.13998  1_554   S
    C5     H20       1.14001      .   S
    C5     H19       1.13993  1_554   S
    C167   H182      1.14002      .   S
    C167   H181      1.13993  1_554   S
    O126   C409      1.26226      .   S
    O126   Zn81      2.05449  1_554   S
    O99    C247      1.26226      .   S
    O99    Zn108     2.05449  1_554   S
    H79    C65       1.14008      .   S
    H160   C146      1.13999      .   S
    H188   C173      1.13993      .   S
    H26    C11       1.14015      .   S
    C33    C113      1.54041      .   S
    C33    H48       1.14002      .   S
    C33    H49       1.13998      .   S
    C33    N39       1.48585  1_554   S
    C195   C86       1.54041      .   S
    C195   H210      1.14002      .   S
    C195   H211      1.13998      .   S
    C195   N201      1.48585  1_554   S
    C113   H128      1.14002      .   S
    C113   H127      1.14010      .   S
    C113   N120      1.49112  1_554   S
    C86    H101      1.14002      .   S
    C86    H100      1.13997      .   S
    C86    N93       1.49112  1_554   S
    O368   C355      1.25763      .   S
    O368   Zn189     2.04425  1_454   S
    O287   C274      1.25763      .   S
    O287   Zn27      2.04426  1_554   S
    C65    C173      1.54285      .   S
    C65    H80       1.13997      .   S
    C146   C11       1.54285      .   S
    C146   H161      1.13993      .   S
    O422   C409      1.25763      .   S
    O422   Zn108     2.04425  1_554   S
    O260   C247      1.25763      .   S
    O260   Zn81      2.04425  1_554   S
    C173   H187      1.13997      .   S
    C11    H25       1.13998      .   S
    O204   C192      1.24189  1_455   S
    O42    C30       1.24188      .   S
    C409   C406      1.49929      .   S
    C247   C244      1.49929      .   S
    O205   C192      1.26163      .   S
    O205   Zn189     2.04522  1_554   S
    O43    C30       1.26163  1_545   S
    O43    Zn27      2.04522  1_554   S
    O70    C57       1.26163      .   S
    O151   C138      1.26162      .   S
    O45    C274      1.26226      .   S
    O207   C355      1.26226      .   S
    C355   C352      1.49930      .   S
    C274   C271      1.49930      .   S
    C192   C191      1.50956      .   S
    C30    C29       1.50956      .   S
    O69    C57       1.24188      .   S
    O150   C138      1.24189      .   S
    Cl122  C118      1.73555      .   S
    Cl95   C91       1.73555  1_455   S
    H294   C278      1.13991      .   S
    H375   C359      1.13991      .   S
    C57    C56       1.50956      .   S
    C138   C137      1.50956      .   S
    Cl337  C198      1.75655      .   S
    Cl310  C36       1.75656      .   S
    H428   C412      1.13987      .   S
    H266   C250      1.14005      .   S
    C406   C118      1.39297      .   S
    C406   C413      1.39042      .   S
    C244   C91       1.39297      .   S
    C244   C251      1.39043      .   S
    C352   C359      1.39042      .   S
    C352   C199      1.39297      .   S
    C271   C278      1.39043      .   S
    C271   C37       1.39296      .   S
    C359   C360      1.37888      .   S
    C278   C279      1.37888      .   S
    C118   C115      1.37414      .   S
    C91    C88       1.37414  1_655   S
    C191   C198      1.37655      .   S
    C191   C331      1.39449  1_655   S
    C29    C36       1.37655  1_565   S
    C29    C304      1.39450      .   S
    H267   C251      1.13991      .   S
    H429   C413      1.13991      .   S
    C137   C412      1.39450      .   S
    C137   C144      1.37655      .   S
    C56    C250      1.39450      .   S
    C56    C63       1.37654  1_565   S
    C412   C415      1.37414      .   S
    C250   C253      1.37414  1_565   S
    C198   C197      1.37888      .   S
    C36    C35       1.37888      .   S
    C251   C252      1.37888      .   S
    C413   C414      1.37888      .   S
    H320   C304      1.14000      .   S
    H347   C331      1.14006      .   S
    Cl40   C279      1.75656      .   S
    Cl202  C360      1.75656      .   S
    C199   Cl203     1.73555      .   S
    C199   C196      1.37414      .   S
    C37    Cl41      1.73555      .   S
    C37    C34       1.37414      .   S
    C279   C272      1.37654      .   S
    C360   C353      1.37655      .   S
    C331   C334      1.37414      .   S
    C304   C307      1.37414      .   S
    C115   H131      1.14006      .   S
    C115   C407      1.39449      .   S
    C88    H104      1.14000      .   S
    C88    C245      1.39450      .   S
    Cl419  C415      1.73555      .   S
    Cl257  C253      1.73555  1_565   S
    C144   Cl418     1.75656      .   S
    C144   C143      1.37888      .   S
    C63    Cl256     1.75656      .   S
    C63    C62       1.37888      .   S
    C415   C136      1.39297      .   S
    C253   C55       1.39296      .   S
    C35    H51       1.13991      .   S
    C35    C28       1.39043      .   S
    C197   H213      1.13991      .   S
    C197   C190      1.39042  1_655   S
    C252   C245      1.37655  1_655   S
    C252   Cl94      1.75656      .   S
    C414   C407      1.37655      .   S
    C414   Cl121     1.75655      .   S
    C34    C272      1.39450      .   S
    C34    H50       1.14005      .   S
    C196   C353      1.39450      .   S
    C196   H212      1.13987      .   S
    C272   C273      1.50956      .   S
    C353   C354      1.50956      .   S
    C245   C246      1.50956      .   S
    C407   C408      1.50956      .   S
    C307   C28       1.39297  1_565   S
    C307   Cl311     1.73555      .   S
    C334   C190      1.39297      .   S
    C334   Cl338     1.73555      .   S
    C62    C55       1.39043      .   S
    C62    H78       1.13991      .   S
    C143   C136      1.39042      .   S
    C143   H159      1.13991      .   S
    C136   C139      1.49930      .   S
    C55    C58       1.49930      .   S
    C28    C31       1.49929      .   S
    C190   C193      1.49929      .   S
    H241   C227      1.13998      .   S
    H403   C389      1.13997      .   S
    H296   C281      1.13997      .   S
    H377   C362      1.13993      .   S
    C354   O366      1.24189      .   S
    C354   O367      1.26162      .   S
    C273   O285      1.24188      .   S
    C273   O286      1.26163      .   S
    O366   Zn270     2.04099      .   S
    O285   Zn351     2.04099      .   S
    H316   C302      1.13997      .   S
    H343   C329      1.14010      .   S
    H265   C249      1.13998      .   S
    H427   C411      1.13998      .   S
    C408   O421      1.26163      .   S
    C408   O420      1.24189      .   S
    C246   O259      1.26163      .   S
    C246   O258      1.24188      .   S
    C58    O261      1.26226      .   S
    C58    O71       1.25763      .   S
    C139   O423      1.26226      .   S
    C139   O152      1.25763      .   S
    H236   C221      1.14001      .   S
    H398   C383      1.14002      .   S
    O423   Zn216     2.05449      .   S
    O261   Zn378     2.05448      .   S
    H291   C276      1.14001      .   S
    H372   C357      1.14002      .   S
    O286   Zn270     2.04522      .   S
    O367   Zn351     2.04522      .   S
    O259   Zn243     2.04522      .   S
    O421   Zn405     2.04522      .   S
    H344   C329      1.14002      .   S
    H317   C302      1.14002      .   S
    C193   O206      1.25763      .   S
    C193   O342      1.26226  1_455   S
    C31    O44       1.25763  1_545   S
    C31    O315      1.26226      .   S
    H264   C249      1.14002  1_655   S
    H426   C411      1.14002      .   S
    O420   Zn216     2.04100      .   S
    O258   Zn378     2.04099      .   S
    C227   C362      1.54285      .   S
    C227   H242      1.14015      .   S
    C227   N228      1.49295      .   S
    C389   C281      1.54285      .   S
    C389   H404      1.13993      .   S
    C389   N390      1.49295      .   S
    O44    Zn297     2.04425      .   S
    O206   Zn324     2.04425  1_565   S
    C362   H376      1.13999      .   S
    C362   N363      1.49295      .   S
    C281   H295      1.14008      .   S
    C281   N282      1.49295      .   S
    O71    Zn243     2.04426      .   S
    O152   Zn405     2.04425      .   S
    C302   C411      1.54041      .   S
    C302   N309      1.49112      .   S
    C329   C249      1.54041      .   S
    C329   N336      1.49112      .   S
    C249   N255      1.48585      .   S
    C411   N417      1.48585      .   S
    O315   Zn324     2.05449  1_655   S
    O342   Zn297     2.05449      .   S
    C221   C357      1.54041      .   S
    C221   N228      1.49113      .   S
    C221   H235      1.13993      .   S
    C383   C276      1.54041      .   S
    C383   N390      1.49112      .   S
    C383   H397      1.13993      .   S
    C276   N282      1.48586      .   S
    C276   H292      1.13998      .   S
    C357   N363      1.48585      .   S
    C357   H373      1.13998      .   S
    Zn270  N390      2.05707      .   S
    Zn270  O369      2.05449      .   S
    Zn270  O17       2.04425      .   S
    Zn351  N228      2.05707      .   S
    Zn351  O288      2.05449      .   S
    Zn351  O179      2.04425      .   S
    N228   C222      1.48585      .   S
    N390   C384      1.48585      .   S
    H319   C303      1.13998      .   S
    H346   C330      1.13998      .   S
    N363   Zn216     2.05707      .   S
    N363   C356      1.49112      .   S
    N282   Zn378     2.05707      .   S
    N282   C275      1.49112      .   S
    H424   C410      1.13993      .   S
    H262   C248      1.13993      .   S
    Zn378  O125      2.04426      .   S
    Zn378  O394      2.04522      .   S
    Zn216  O98       2.04425      .   S
    Zn216  O232      2.04522      .   S
    Zn243  N336      2.05707      .   S
    Zn243  O393      2.04099      .   S
    Zn243  O396      2.05448      .   S
    Zn405  N309      2.05707      .   S
    Zn405  O231      2.04100      .   S
    Zn405  O234      2.05449      .   S
    N309   C303      1.48585      .   S
    N309   C308      1.49295      .   S
    N336   C330      1.48586      .   S
    N336   C335      1.49295      .   S
    N255   Zn324     2.05707      .   S
    N255   C248      1.49112      .   S
    N255   C254      1.49295      .   S
    N417   Zn297     2.05707      .   S
    N417   C410      1.49113      .   S
    N417   C416      1.49295      .   S
    Zn324  O340      2.04522      .   S
    Zn324  O312      2.04099      .   S
    Zn297  O313      2.04522  1_565   S
    Zn297  O339      2.04099  1_655   S
    C330   C248      1.54041      .   S
    C330   H345      1.14001      .   S
    C303   C410      1.54041      .   S
    C303   H318      1.14002      .   S
    C248   H263      1.14002      .   S
    C410   H425      1.14001  1_565   S
    O288   C4        1.26226      .   S
    O369   C166      1.26226      .   S
    H322   C308      1.13999      .   S
    H349   C335      1.14008      .   S
    H269   C254      1.13993      .   S
    H431   C416      1.14015  1_455   S
    C384   C275      1.54041      .   S
    C384   H399      1.14002      .   S
    C384   H400      1.13998      .   S
    C222   C356      1.54041      .   S
    C222   H237      1.14002      .   S
    C222   H238      1.13998      .   S
    C275   H290      1.14002      .   S
    C275   H289      1.14010      .   S
    C356   H371      1.14002      .   S
    C356   H370      1.13997      .   S
    O125   C112      1.25763      .   S
    O98    C85       1.25763      .   S
    C308   C416      1.54285      .   S
    C308   H323      1.13993      .   S
    C335   C254      1.54285      .   S
    C335   H350      1.13997      .   S
    O17    C4        1.25763      .   S
    O179   C166      1.25763      .   S
    C416   H430      1.13998  1_655   S
    C254   H268      1.13997      .   S
    O231   C219      1.24189      .   S
    O393   C381      1.24188      .   S
    C4     C1        1.49929      .   S
    C166   C163      1.49929      .   S
    O394   C381      1.26163      .   S
    O232   C219      1.26163      .   S
    O313   C300      1.26162  1_655   S
    O340   C327      1.26163      .   S
    O396   C112      1.26226      .   S
    O234   C85       1.26226      .   S
    C85    C82       1.49930      .   S
    C112   C109      1.49930      .   S
    C381   C380      1.50956      .   S
    C219   C218      1.50956      .   S
    O339   C327      1.24188  1_565   S
    O312   C300      1.24189      .   S
    Cl365  C361      1.73555      .   S
    Cl284  C280      1.73555      .   S
    H105   C89       1.13991      .   S
    H132   C116      1.13991      .   S
    C300   C299      1.50956      .   S
    C327   C326      1.50956      .   S
    Cl67   C225      1.75655      .   S
    Cl148  C387      1.75656      .   S
    H23    C7        1.13987      .   S
    H185   C169      1.14005      .   S
    C1     C280      1.39297      .   S
    C1     C8        1.39042      .   S
    C163   C361      1.39297      .   S
    C163   C170      1.39043      .   S
    C82    C89       1.39042      .   S
    C82    C226      1.39297      .   S
    C109   C116      1.39043      .   S
    C109   C388      1.39296      .   S
    C89    C90       1.37888  1_565   S
    C116   C117      1.37888      .   S
    C361   C358      1.37414      .   S
    C280   C277      1.37414      .   S
    C218   C225      1.37655      .   S
    C218   C61       1.39449  1_655   S
    C380   C387      1.37655      .   S
    C380   C142      1.39450      .   S
    H186   C170      1.13991      .   S
    H24    C8        1.13991      .   S
    C326   C169      1.39450  1_545   S
    C326   C333      1.37654      .   S
    C299   C7        1.39450      .   S
    C299   C306      1.37655  1_455   S
    C7     C10       1.37414      .   S
    C169   C172      1.37414      .   S
    C225   C224      1.37888  1_655   S
    C387   C386      1.37888      .   S
    C170   C171      1.37888      .   S
    C8     C9        1.37888      .   S
    H77    C61       1.14006  1_655   S
    H158   C142      1.14000      .   S
    Cl229  C90       1.75656      .   S
    Cl391  C117      1.75656      .   S
    C226   Cl230     1.73555      .   S
    C226   C223      1.37414      .   S
    C388   Cl392     1.73555      .   S
    C388   C385      1.37414      .   S
    C90    C83       1.37655      .   S
    C117   C110      1.37654      .   S
    C142   C145      1.37414      .   S
    C61    C64       1.37414      .   S
    C358   H374      1.14000      .   S
    C358   C164      1.39450      .   S
    C277   H293      1.14006      .   S
    C277   C2        1.39449      .   S
    Cl176  C172      1.73555      .   S
    Cl14   C10       1.73555      .   S
    C333   Cl175     1.75656      .   S
    C333   C332      1.37888      .   S
    C306   Cl13      1.75656      .   S
    C306   C305      1.37888      .   S
    C172   C325      1.39296      .   S
    C10    C298      1.39297  1_455   S
    C224   H240      1.13991      .   S
    C224   C217      1.39042      .   S
    C386   H402      1.13991      .   S
    C386   C379      1.39043      .   S
    C9     C2        1.37655      .   S
    C9     Cl283     1.75655      .   S
    C171   C164      1.37655      .   S
    C171   Cl364     1.75656      .   S
    C385   C110      1.39450      .   S
    C385   H401      1.14005      .   S
    C223   C83       1.39450  1_565   S
    C223   H239      1.13987  1_565   S
    C83    C84       1.50956      .   S
    C110   C111      1.50956      .   S
    C164   C165      1.50956      .   S
    C2     C3        1.50956      .   S
    C64    C217      1.39297      .   S
    C64    Cl68      1.73555      .   S
    C145   C379      1.39297      .   S
    C145   Cl149     1.73555      .   S
    C305   C298      1.39042      .   S
    C305   H321      1.13991      .   S
    C332   C325      1.39043  1_545   S
    C332   H348      1.13991      .   S
    C298   C301      1.49930      .   S
    C325   C328      1.49930      .   S
    C379   C382      1.49929      .   S
    C217   C220      1.49929      .   S
    H52    C38       1.13997      .   S
    H214   C200      1.13998      .   S
    H107   C92       1.13993      .   S
    H134   C119      1.13997  1_565   S
    C111   O123      1.24188      .   S
    C111   O124      1.26163      .   S
    C84    O96       1.24189      .   S
    C84    O97       1.26162      .   S
    O123   Zn81      2.04099      .   S
    O96    Zn108     2.04099      .   S
    H154   C140      1.13997      .   S
    H73    C59       1.14010      .   S
    H22    C6        1.13998      .   S
    H184   C168      1.13998      .   S
    C165   O178      1.26163      .   S
    C165   O177      1.24188      .   S
    C3     O16       1.26163      .   S
    C3     O15       1.24189      .   S
    C328   O180      1.26226  1_565   S
    C328   O341      1.25763      .   S
    C301   O18       1.26226      .   S
    C301   O314      1.25763  1_655   S
    H209   C194      1.14001      .   S
    H47    C32       1.14002      .   S
    O18    Zn189     2.05449      .   S
    O180   Zn27      2.05448      .   S
    H102   C87       1.14002      .   S
    H129   C114      1.14001      .   S
    O97    Zn81      2.04522      .   S
    O124   Zn108     2.04522      .   S
    H155   C140      1.14002  1_655   S
    H74    C59       1.14002      .   S
    C220   O233      1.25763      .   S
    C220   O72       1.26226      .   S
    C382   O395      1.25763      .   S
    C382   O153      1.26226      .   S
    H21    C6        1.14002      .   S
    H183   C168      1.14002      .   S
    O177   Zn27      2.04099  1_565   S
    O15    Zn189     2.04100      .   S
    C38    C119      1.54285      .   S
    C38    H53       1.13993      .   S
    C38    N39       1.49295      .   S
    C200   C92       1.54285      .   S
    C200   H215      1.14015      .   S
    C200   N201      1.49295      .   S
    C92    H106      1.13999      .   S
    C92    N93       1.49295      .   S
    C119   H133      1.14008  1_545   S
    C119   N120      1.49295      .   S
    C59    C168      1.54041      .   S
    C140   C6        1.54041      .   S
    C194   C87       1.54041      .   S
    C194   N201      1.49113      .   S
    C32    C114      1.54041      .   S
    C32    N39       1.49112      .   S
    C114   N120      1.48586      .   S
    C87    N93       1.48585      .   S
    Zn81   N201      2.05707      .   S
    Zn108  N39       2.05707      .   S
    N120   Zn27      2.05707      .   S
    N93    Zn189     2.05707      .   S
    Zn0    Zn189     2.99218  1_454   S
    Zn27   Zn162     2.99218  1_546   S
    Zn54   Zn135     2.99218      .   S
    Zn81   Zn108     2.99218      .   S
    Zn216  Zn405     2.99218      .   S
    Zn243  Zn378     2.99218      .   S
    Zn270  Zn351     2.99218      .   S
    Zn297  Zn324     2.99218  1_665   S
