# CIF file generated by openbabel 2.4.90, see http://openbabel.sf.net
data_I
_chemical_name_common ''
_cell_length_a 7.8022
_cell_length_b 11.1795
_cell_length_c 13.4306
_cell_angle_alpha 114.595
_cell_angle_beta 102.582
_cell_angle_gamma 90
_space_group_name_H-M_alt 'P 1'
_space_group_name_Hall 'P 1'
loop_
    _symmetry_equiv_pos_as_xyz
    x,y,z
loop_
    _atom_site_label
    _atom_site_type_symbol
    _atom_site_fract_x
    _atom_site_fract_y
    _atom_site_fract_z
    _atom_site_occupancy
    C0      C    0.46817   0.04361   0.29562   1.000
    C1      C    0.48581   0.02304   0.40111   1.000
    C2      C    0.61940   0.95149   0.43218   1.000
    C3      C    0.36637   0.07137   0.47055   1.000
    C4      C    0.78517   0.49062   0.90907   1.000
    C5      C    0.78415   0.36565   0.91010   1.000
    C6      C    0.03185   0.74775   0.70395   1.000
    C7      C    0.01393   0.62149   0.59854   1.000
    C8      C    0.87948   0.51932   0.56719   1.000
    C9      C    0.13414   0.59970   0.52952   1.000
    C10     C    0.71351   0.58131   0.09513   1.000
    C11     C    0.71471   0.45551   0.09359   1.000
    C12     C    0.53172   0.95697   0.70414   1.000
    C13     C    0.51382   0.97757   0.59864   1.000
    C14     C    0.38018   0.04910   0.56756   1.000
    C15     C    0.63325   0.92926   0.52919   1.000
    C16     C    0.21525   0.50955   0.09124   1.000
    C17     C    0.21561   0.63516   0.09140   1.000
    C18     C    0.96812   0.25188   0.29590   1.000
    C19     C    0.98583   0.37810   0.40130   1.000
    C20     C    0.12024   0.48028   0.43265   1.000
    C21     C    0.86562   0.39986   0.47032   1.000
    C22     C    0.28510   0.41843   0.90887   1.000
    C23     C    0.28450   0.54390   0.90874   1.000
    C24     C    0.74975   0.21215   0.00073   1.000
    C25     C    0.75058   0.73474   0.99935   1.000
    C26     C    0.75051   0.60146   0.99929   1.000
    C27     C    0.74955   0.34626   0.00145   1.000
    C28     C    0.24989   0.78819   0.00008   1.000
    C29     C    0.25029   0.26549   0.00003   1.000
    C30     C    0.25022   0.39928   0.00005   1.000
    C31     C    0.24997   0.65431   0.00007   1.000
    O32     O    0.71483   0.19991   0.08541   1.000
    O33     O    0.58161   0.99567   0.23596   1.000
    O34     O    0.41790   0.08843   0.05829   1.000
    O35     O    0.69987   0.82960   0.07972   1.000
    O36     O    0.33907   0.10568   0.27044   1.000
    O37     O    0.78475   0.11584   0.91561   1.000
    O38     O    0.91610   0.76092   0.76235   1.000
    O39     O    0.08271   0.03067   0.94185   1.000
    O40     O    0.80126   0.75003   0.91928   1.000
    O41     O    0.16290   0.83376   0.72981   1.000
    O42     O    0.28507   0.80004   0.91525   1.000
    O43     O    0.41659   0.00290   0.76290   1.000
    O44     O    0.58265   0.91168   0.94172   1.000
    O45     O    0.30116   0.17025   0.91990   1.000
    O46     O    0.66238   0.89641   0.72982   1.000
    O47     O    0.21467   0.88482   0.08493   1.000
    O48     O    0.08240   0.23969   0.23669   1.000
    O49     O    0.91784   0.96975   0.05814   1.000
    O50     O    0.19934   0.25034   0.08012   1.000
    O51     O    0.83836   0.16501   0.27049   1.000
    H52     H    0.71369   0.91190   0.38122   1.000
    H53     H    0.26124   0.12654   0.44994   1.000
    H54     H    0.81320   0.50009   0.83702   1.000
    H55     H    0.81154   0.28324   0.83842   1.000
    H56     H    0.78461   0.53120   0.61785   1.000
    H57     H    0.23993   0.67507   0.55032   1.000
    H58     H    0.68540   0.66327   0.16681   1.000
    H59     H    0.68739   0.44375   0.16485   1.000
    H60     H    0.28594   0.08870   0.61855   1.000
    H61     H    0.73840   0.87409   0.54976   1.000
    H62     H    0.18759   0.49903   0.16295   1.000
    H63     H    0.18822   0.71732   0.16324   1.000
    H64     H    0.21515   0.46842   0.38202   1.000
    H65     H    0.75984   0.32447   0.44950   1.000
    H66     H    0.31287   0.33627   0.83717   1.000
    H67     H    0.31184   0.55428   0.83690   1.000
loop_
    _geom_bond_atom_site_label_1
    _geom_bond_atom_site_label_2
    _geom_bond_distance
    _geom_bond_site_symmetry_2
    _ccdc_geom_bond_type
    C29    C30       1.49559      .   S
    C29    O50       1.29680      .   S
    C29    O45       1.29679  1_554   S
    C30    C16       1.40817      .   S
    C30    C22       1.40818  1_554   S
    C31    C28       1.49666      .   S
    C31    C17       1.40860      .   S
    C31    C23       1.40869  1_554   S
    C28    O47       1.28563      .   S
    C28    O42       1.28562  1_554   S
    C24    C27       1.49529      .   S
    C24    O32       1.28489      .   S
    C24    O37       1.28538  1_554   S
    C27    C11       1.40906      .   S
    C27    C5        1.41095  1_554   S
    O35    C25       1.29596  1_554   S
    C16    C17       1.40337      .   S
    C16    H62       1.08297      .   S
    C17    H63       1.08278      .   S
    C11    C10       1.39796      .   S
    C11    H59       1.08273      .   S
    C10    H58       1.08267      .   S
    C10    C26       1.48128  1_554   S
    O33    C0        1.29002  1_565   S
    O48    C18       1.29022  1_455   S
    O36    C0        1.28740      .   S
    O51    C18       1.28771      .   S
    C0     C1        1.50512      .   S
    C18    C19       1.50538      .   S
    H52    C2        1.08293      .   S
    H64    C20       1.08289      .   S
    C1     C2        1.41021  1_545   S
    C1     C3        1.41044      .   S
    C19    C20       1.41039  1_655   S
    C19    C21       1.41039      .   S
    C2     C15       1.40684      .   S
    C20    C9        1.40694      .   S
    H65    C21       1.08304      .   S
    H53    C3        1.08306      .   S
    C21    C8        1.40723      .   S
    C3     C14       1.40713      .   S
    C15    H61       1.08300      .   S
    C15    C13       1.41044      .   S
    C9     H57       1.08300      .   S
    C9     C7        1.41036      .   S
    C8     C7        1.41053  1_655   S
    C8     H56       1.08289      .   S
    C14    C13       1.41037  1_545   S
    C14    H60       1.08288      .   S
    C7     C6        1.50551      .   S
    C13    C12       1.50520      .   S
    C6     O41       1.28762      .   S
    C6     O38       1.29033  1_455   S
    C12    O46       1.28754      .   S
    C12    O43       1.29030  1_565   S
    H67    C23       1.08295      .   S
    H54    C4        1.08301      .   S
    H66    C22       1.08285      .   S
    H55    C5        1.08287      .   S
    C23    C22       1.40343      .   S
    C4     C5        1.40296      .   S
    C4     C26       1.40348      .   S
    O40    C25       1.29627      .   S
    C26    C25       1.48967      .   S
