# CIF file generated by openbabel 2.4.90, see http://openbabel.sf.net
data_I
_chemical_name_common ''
_cell_length_a 7.8022
_cell_length_b 11.1795
_cell_length_c 13.4306
_cell_angle_alpha 114.595
_cell_angle_beta 102.582
_cell_angle_gamma 90
_space_group_name_H-M_alt 'P 1'
_space_group_name_Hall 'P 1'
loop_
    _symmetry_equiv_pos_as_xyz
    x,y,z
loop_
    _atom_site_label
    _atom_site_type_symbol
    _atom_site_fract_x
    _atom_site_fract_y
    _atom_site_fract_z
    _atom_site_occupancy
    Zr0     Zr   0.67802   0.03151   0.11366   1.000
    Zr1     Zr   0.82232   0.91885   0.88640   1.000
    Zr2     Zr   0.32232   0.96827   0.88647   1.000
    Zr3     Zr   0.17806   0.08188   0.11366   1.000
    N4      N    0.25010   0.52667   0.00006   1.000
    O5      O    0.21940   0.34639   0.04847   1.000
    O6      O    0.27690   0.70541   0.95046   1.000
    O7      O    0.28092   0.29796   0.95162   1.000
    O8      O    0.22323   0.75501   0.04968   1.000
    N9      N    0.58265   0.91168   0.94172   1.000
    O10     O    0.60649   0.94164   0.98470   1.000
    O11     O    0.64257   0.91347   0.92789   1.000
    O12     O    0.51757   0.92583   0.92791   1.000
    N13     N    0.99991   0.49981   0.49990   1.000
    O14     O    0.93456   0.66985   0.66214   1.000
    O15     O    0.12126   0.70041   0.65402   1.000
    O16     O    0.06507   0.33030   0.33754   1.000
    O17     O    0.87905   0.29903   0.34599   1.000
    N18     N    0.74976   0.47334   0.00099   1.000
    O19     O    0.71935   0.70195   0.04884   1.000
    O20     O    0.77665   0.24534   0.95100   1.000
    O21     O    0.78078   0.65389   0.95191   1.000
    O22     O    0.72309   0.29452   0.05026   1.000
    N23     N    0.49985   0.00027   0.49985   1.000
    O24     O    0.56483   0.00693   0.33733   1.000
    O25     O    0.37921   0.04702   0.34595   1.000
    O26     O    0.62110   0.95395   0.65398   1.000
    O27     O    0.43465   0.99293   0.66227   1.000
    N28     N    0.91784   0.96975   0.05814   1.000
    O29     O    0.85789   0.98519   0.07202   1.000
    O30     O    0.89396   0.95702   0.01520   1.000
    O31     O    0.98290   0.99778   0.07202   1.000
    N32     N    0.41790   0.08843   0.05829   1.000
    O33     O    0.35794   0.08679   0.07213   1.000
    O34     O    0.39400   0.05839   0.01533   1.000
    O35     O    0.48293   0.07420   0.07213   1.000
    N36     N    0.08271   0.03067   0.94185   1.000
    O37     O    0.10655   0.04347   0.98480   1.000
    O38     O    0.14261   0.01507   0.92800   1.000
    O39     O    0.01761   0.00271   0.92799   1.000
loop_
    _geom_bond_atom_site_label_1
    _geom_bond_atom_site_label_2
    _geom_bond_distance
    _geom_bond_site_symmetry_2
    _ccdc_geom_bond_type
    N4     O5        2.38765      .   S
    Zr3    O5        3.44859      .   S
    N4     O6        2.37682  1_554   S
    Zr2    O6        3.42560      .   S
    N4     O7        2.38785  1_554   S
    Zr2    O7        3.44872  1_565   S
    N4     O8        2.37684      .   S
    Zr3    O8        3.42554  1_545   S
    N9     O10       0.52185      .   S
    Zr0    O10       1.56555  1_544   S
    N9     O11       0.54257      .   S
    Zr1    O11       1.62770      .   S
    N9     O12       0.54832      .   S
    Zr2    O12       1.64497      .   S
    N13    O14       2.37855      .   S
    Zr1    O14       3.42898      .   S
    N13    O15       2.34362  1_655   S
    Zr2    O15       3.35544      .   S
    N13    O16       2.37655  1_655   S
    Zr3    O16       3.42560      .   S
    N13    O17       2.34283      .   S
    Zr0    O17       3.35273      .   S
    N18    O19       2.38752      .   S
    Zr0    O19       3.44800  1_545   S
    N18    O20       2.37244  1_554   S
    Zr1    O20       3.42068  1_565   S
    N18    O21       2.39668  1_554   S
    Zr1    O21       3.45648      .   S
    N18    O22       2.37458      .   S
    Zr0    O22       3.42184      .   S
    N23    O24       2.37578      .   S
    Zr0    O24       3.42380      .   S
    N23    O25       2.34164      .   S
    Zr3    O25       3.35063      .   S
    N23    O26       2.34251  1_545   S
    Zr1    O26       3.35370      .   S
    N23    O27       2.37831  1_545   S
    Zr2    O27       3.42813      .   S
    N28    O29       0.54274      .   S
    Zr0    O29       1.62823  1_545   S
    N28    O30       0.52190      .   S
    Zr1    O30       1.56569  1_556   S
    N28    O31       0.54840      .   S
    Zr3    O31       1.64519  1_445   S
    N32    O33       0.54266      .   S
    Zr3    O33       1.62798      .   S
    N32    O34       0.52176      .   S
    Zr2    O34       1.56528  1_566   S
    N32    O35       0.54848      .   S
    Zr0    O35       1.64543      .   S
    N36    O37       0.52191      .   S
    Zr3    O37       1.56573  1_554   S
    N36    O38       0.54249      .   S
    Zr2    O38       1.62747  1_565   S
    N36    O39       0.54833      .   S
    Zr1    O39       1.64500  1_665   S
