# CIF file generated by openbabel 2.4.90, see http://openbabel.sf.net
data_I
_chemical_name_common ''
_cell_length_a 24.7318
_cell_length_b 24.7318
_cell_length_c 24.7318
_cell_angle_alpha 127.653
_cell_angle_beta 127.653
_cell_angle_gamma 77.1881
_space_group_name_H-M_alt 'P 1'
_space_group_name_Hall 'P 1'
loop_
    _symmetry_equiv_pos_as_xyz
    x,y,z
loop_
    _atom_site_label
    _atom_site_type_symbol
    _atom_site_fract_x
    _atom_site_fract_y
    _atom_site_fract_z
    _atom_site_occupancy
    C0      C    0.67127   0.49117   0.66770   1.000
    C1      C    0.80425   0.50915   0.80950   1.000
    C2      C    0.20026   0.62516   0.03990   1.000
    C3      C    0.09400   0.63040   0.93040   1.000
    C4      C    0.01020   0.25280   0.70800   1.000
    C5      C    0.72820   0.54480   0.71940   1.000
    C6      C    0.79284   0.55294   0.78850   1.000
    C7      C    0.00553   0.31743   0.76370   1.000
    C8      C    0.14750   0.72400   0.08170   1.000
    N9      N    0.16224   0.67314   0.01890   1.000
    Cl10    Cl   0.99082   0.14068   0.76508   1.000
    Cl11    Cl   0.01102   0.38373   0.76001   1.000
    H12     H    0.21020   0.58501   0.99093   1.000
    H13     H    0.25275   0.65742   0.10774   1.000
    H14     H    0.06367   0.66664   0.91421   1.000
    H15     H    0.10475   0.59162   0.88192   1.000
    H16     H    0.01827   0.24506   0.66318   1.000
    H17     H    0.72167   0.58252   0.70482   1.000
    H18     H    0.19935   0.75657   0.15018   1.000
    H19     H    0.11793   0.76043   0.06542   1.000
    C20     C    0.82347   0.00357   0.33230   1.000
    C21     C    0.69965   0.99475   0.19050   1.000
    C22     C    0.58526   0.16036   0.96010   1.000
    C23     C    0.70000   0.16360   0.06960   1.000
    C24     C    0.54480   0.30220   0.29200   1.000
    C25     C    0.82540   0.00880   0.28060   1.000
    C26     C    0.76444   0.00434   0.21150   1.000
    C27     C    0.55373   0.24183   0.23630   1.000
    C28     C    0.64230   0.06580   0.91830   1.000
    N29     N    0.65424   0.14334   0.98110   1.000
    Cl30    Cl   0.37560   0.22574   0.23492   1.000
    Cl31    Cl   0.62372   0.25101   0.23999   1.000
    H32     H    0.59408   0.21927   0.00907   1.000
    H33     H    0.54968   0.14501   0.89226   1.000
    H34     H    0.75243   0.14946   0.08579   1.000
    H35     H    0.70970   0.22283   0.11808   1.000
    H36     H    0.58188   0.35510   0.33682   1.000
    H37     H    0.87770   0.01685   0.29518   1.000
    H38     H    0.60638   0.04917   0.84982   1.000
    H39     H    0.69500   0.05251   0.93458   1.000
    C40     C    0.24117   0.07347   0.31990   1.000
    C41     C    0.25915   0.94965   0.20490   1.000
    C42     C    0.37516   0.83526   0.92490   1.000
    C43     C    0.38040   0.95000   0.03640   1.000
    C44     C    0.00280   0.79480   0.74260   1.000
    C45     C    0.29480   0.07540   0.31660   1.000
    C46     C    0.30294   0.01444   0.26010   1.000
    C47     C    0.06743   0.80373   0.81190   1.000
    C48     C    0.47400   0.89230   0.07650   1.000
    N49     N    0.42314   0.90424   0.01090   1.000
    Cl50    Cl   0.89068   0.62560   0.64986   1.000
    Cl51    Cl   0.13373   0.87372   0.87271   1.000
    H52     H    0.33501   0.84408   0.87480   1.000
    H53     H    0.40742   0.79968   0.90467   1.000
    H54     H    0.41664   0.00243   0.10297   1.000
    H55     H    0.34162   0.95970   0.98687   1.000
    H56     H    0.99506   0.83188   0.72678   1.000
    H57     H    0.33252   0.12770   0.36085   1.000
    H58     H    0.50657   0.85638   0.05722   1.000
    H59     H    0.51043   0.94500   0.14249   1.000
    C60     C    0.75357   0.92127   0.68010   1.000
    C61     C    0.74475   0.05425   0.79510   1.000
    C62     C    0.91036   0.45026   0.07510   1.000
    C63     C    0.91360   0.34400   0.96360   1.000
    C64     C    0.05220   0.26020   0.25740   1.000
    C65     C    0.75880   0.97820   0.68340   1.000
    C66     C    0.75434   0.04284   0.73990   1.000
    C67     C    0.99183   0.25553   0.18810   1.000
    C68     C    0.81580   0.39750   0.92350   1.000
    N69     N    0.89334   0.41224   0.98910   1.000
    Cl70    Cl   0.97574   0.24082   0.35014   1.000
    Cl71    Cl   0.00101   0.26102   0.12729   1.000
    C72     C    0.18257   0.49447   0.23630   1.000
    C73     C    0.77600   0.35250   0.91830   1.000
    N74     N    0.82686   0.33776   0.98110   1.000
    H75     H    0.96927   0.46020   0.12520   1.000
    H76     H    0.89501   0.50275   0.09533   1.000
    H77     H    0.89946   0.31367   0.89703   1.000
    H78     H    0.97283   0.35475   0.01313   1.000
    H79     H    0.10510   0.26827   0.27322   1.000
    H80     H    0.76685   0.97167   0.63915   1.000
    H81     H    0.79917   0.44935   0.94278   1.000
    H82     H    0.80251   0.36793   0.85751   1.000
    C83     C    0.42653   0.25883   0.68010   1.000
    C84     C    0.55035   0.24085   0.79510   1.000
    C85     C    0.66474   0.12484   0.07510   1.000
    C86     C    0.55000   0.11960   0.96360   1.000
    C87     C    0.70520   0.49720   0.25740   1.000
    C88     C    0.42460   0.20520   0.68340   1.000
    C89     C    0.48556   0.19706   0.73990   1.000
    C90     C    0.69627   0.43257   0.18810   1.000
    C91     C    0.60770   0.02600   0.92350   1.000
    N92     N    0.59576   0.07686   0.98910   1.000
    Cl93    Cl   0.87440   0.60932   0.35014   1.000
    Cl94    Cl   0.62628   0.36627   0.12729   1.000
    H95     H    0.65592   0.16499   0.12520   1.000
    Cl96    Cl   0.37440   0.02426   0.26508   1.000
    Cl97    Cl   0.12628   0.99899   0.26001   1.000
    H98     H    0.70032   0.09258   0.09533   1.000
    H99     H    0.49757   0.08336   0.89703   1.000
    H100    H    0.54030   0.15838   0.01313   1.000
    H101    H    0.66812   0.50494   0.27322   1.000
    H102    H    0.37230   0.16748   0.63915   1.000
    H103    H    0.64362   0.99343   0.94278   1.000
    H104    H    0.55500   0.98957   0.85751   1.000
    C105    C    0.57873   0.74643   0.31990   1.000
    C106    C    0.44575   0.75525   0.20490   1.000
    C107    C    0.04974   0.58964   0.92490   1.000
    C108    C    0.15600   0.58640   0.03640   1.000
    C109    C    0.23980   0.44780   0.74260   1.000
    C110    C    0.52180   0.74120   0.31660   1.000
    C111    C    0.45716   0.74566   0.26010   1.000
    C112    C    0.24447   0.50817   0.81190   1.000
    C113    C    0.10250   0.68420   0.07650   1.000
    N114    N    0.08776   0.60666   0.01090   1.000
    Cl115   Cl   0.25918   0.52426   0.64986   1.000
    Cl116   Cl   0.23898   0.49899   0.87271   1.000
    H117    H    0.03980   0.53073   0.87480   1.000
    H118    H    0.99725   0.60499   0.90467   1.000
    H119    H    0.18633   0.60054   0.10297   1.000
    H120    H    0.14525   0.52717   0.98687   1.000
    H121    H    0.23173   0.39490   0.72678   1.000
    H122    H    0.52833   0.73315   0.36085   1.000
    H123    H    0.05065   0.70083   0.05722   1.000
    H124    H    0.13207   0.69749   0.14249   1.000
    C125    C    0.49643   0.67653   0.66770   1.000
    C126    C    0.50525   0.80035   0.80950   1.000
    C127    C    0.33964   0.91474   0.03990   1.000
    C128    C    0.33640   0.80000   0.93040   1.000
    C129    C    0.19780   0.95520   0.70800   1.000
    C130    C    0.49120   0.67460   0.71940   1.000
    C131    C    0.49566   0.73556   0.78850   1.000
    C132    C    0.25817   0.94627   0.76370   1.000
    C133    C    0.43420   0.85770   0.08170   1.000
    N134    N    0.35666   0.84576   0.01890   1.000
    Cl135   Cl   0.27426   0.12440   0.76508   1.000
    Cl136   Cl   0.24899   0.87628   0.76001   1.000
    H137    H    0.28073   0.90592   0.99093   1.000
    H138    H    0.35499   0.95032   0.10774   1.000
    H139    H    0.35054   0.74757   0.91421   1.000
    H140    H    0.27717   0.79030   0.88192   1.000
    H141    H    0.14490   0.91812   0.66318   1.000
    H142    H    0.48315   0.62230   0.70482   1.000
    H143    H    0.45083   0.89362   0.15018   1.000
    H144    H    0.44749   0.80500   0.06542   1.000
    C145    C    0.00883   0.82873   0.33230   1.000
    C146    C    0.99085   0.69575   0.19050   1.000
    C147    C    0.87484   0.29974   0.96010   1.000
    C148    C    0.86960   0.40600   0.06960   1.000
    C149    C    0.24720   0.48980   0.29200   1.000
    C150    C    0.95520   0.77180   0.28060   1.000
    C151    C    0.94706   0.70716   0.21150   1.000
    H152    H    0.46927   0.34408   0.50907   1.000
    H153    H    0.39501   0.29968   0.39226   1.000
    H154    H    0.39946   0.50243   0.58579   1.000
    H155    H    0.47283   0.45970   0.61808   1.000
    H156    H    0.60510   0.33188   0.83682   1.000
    H157    H    0.26685   0.62770   0.79518   1.000
    Cl158   Cl   0.35932   0.50918   0.23492   1.000
    Cl159   Cl   0.11627   0.48898   0.23999   1.000
    H160    H    0.91499   0.28980   0.00907   1.000
    H161    H    0.84258   0.24725   0.89226   1.000
    H162    H    0.83336   0.43633   0.08579   1.000
    H163    H    0.90838   0.39525   0.11808   1.000
    H164    H    0.25494   0.48173   0.33682   1.000
    H165    H    0.91748   0.77833   0.29518   1.000
    H166    H    0.74343   0.30065   0.84982   1.000
    H167    H    0.73957   0.38207   0.93458   1.000
    C168    C    0.07873   0.75883   0.83230   1.000
    C169    C    0.94575   0.74085   0.69050   1.000
    C170    C    0.54974   0.62484   0.46010   1.000
    C171    C    0.65600   0.61960   0.56960   1.000
    C172    C    0.73980   0.99720   0.79200   1.000
    C173    C    0.02180   0.70520   0.78060   1.000
    C174    C    0.95716   0.69706   0.71150   1.000
    C175    C    0.74447   0.93257   0.73630   1.000
    C176    C    0.60250   0.52600   0.41830   1.000
    N177    N    0.58776   0.57686   0.48110   1.000
    Cl178   Cl   0.75918   0.10932   0.73492   1.000
    Cl179   Cl   0.73898   0.86627   0.73999   1.000
    H180    H    0.53980   0.66499   0.50907   1.000
    H181    H    0.49725   0.59258   0.39226   1.000
    H182    H    0.68633   0.58336   0.58579   1.000
    H183    H    0.64525   0.65838   0.61808   1.000
    H184    H    0.73173   0.00494   0.83682   1.000
    H185    H    0.02833   0.66748   0.79518   1.000
    H186    H    0.55065   0.49343   0.34982   1.000
    H187    H    0.63207   0.48957   0.43458   1.000
    C188    C    0.92653   0.24643   0.16770   1.000
    C189    C    0.05035   0.25525   0.30950   1.000
    C190    C    0.16474   0.08964   0.53990   1.000
    C191    C    0.05000   0.08640   0.43040   1.000
    C192    C    0.20520   0.94780   0.20800   1.000
    C193    C    0.92460   0.24120   0.21940   1.000
    C194    C    0.98556   0.24566   0.28850   1.000
    C195    C    0.19627   0.00817   0.26370   1.000
    C196    C    0.10770   0.18420   0.58170   1.000
    N197    N    0.09576   0.10666   0.51890   1.000
    H198    H    0.15592   0.03073   0.49093   1.000
    H199    H    0.20032   0.10499   0.60774   1.000
    H200    H    0.99757   0.10054   0.41421   1.000
    H201    H    0.04030   0.02717   0.38192   1.000
    H202    H    0.16812   0.89490   0.16318   1.000
    H203    H    0.87230   0.23315   0.20482   1.000
    H204    H    0.14362   0.20083   0.65018   1.000
    H205    H    0.05500   0.19749   0.56542   1.000
    C206    C    0.50883   0.17653   0.18010   1.000
    C207    C    0.49085   0.30035   0.29510   1.000
    C208    C    0.37484   0.41474   0.57510   1.000
    C209    C    0.36960   0.30000   0.46360   1.000
    C210    C    0.74720   0.45520   0.75740   1.000
    C211    C    0.45520   0.17460   0.18340   1.000
    C212    C    0.44706   0.23556   0.23990   1.000
    C213    C    0.68257   0.44627   0.68810   1.000
    C214    C    0.27600   0.35770   0.42350   1.000
    N215    N    0.32686   0.34576   0.48910   1.000
    Cl216   Cl   0.85932   0.62440   0.85014   1.000
    Cl217   Cl   0.61627   0.37628   0.62729   1.000
    H218    H    0.41499   0.40592   0.62520   1.000
    H219    H    0.34258   0.45032   0.59533   1.000
    H220    H    0.33336   0.24757   0.39703   1.000
    H221    H    0.40838   0.29030   0.51313   1.000
    H222    H    0.75494   0.41812   0.77322   1.000
    H223    H    0.41748   0.12230   0.13915   1.000
    H224    H    0.24343   0.39362   0.44278   1.000
    H225    H    0.23957   0.30500   0.35751   1.000
    C226    C    0.99643   0.32873   0.81990   1.000
    C227    C    0.00525   0.19575   0.70490   1.000
    C228    C    0.83964   0.79974   0.42490   1.000
    C229    C    0.83640   0.90600   0.53640   1.000
    C230    C    0.69780   0.98980   0.24260   1.000
    C231    C    0.99120   0.27180   0.81660   1.000
    C232    C    0.99566   0.20716   0.76010   1.000
    C233    C    0.75817   0.99447   0.31190   1.000
    C234    C    0.93420   0.85250   0.57650   1.000
    N235    N    0.85666   0.83776   0.51090   1.000
    Cl236   Cl   0.77426   0.00918   0.14986   1.000
    Cl237   Cl   0.74899   0.98898   0.37271   1.000
    H238    H    0.78073   0.78980   0.37480   1.000
    H239    H    0.85499   0.74725   0.40467   1.000
    H240    H    0.85054   0.93633   0.60297   1.000
    H241    H    0.77717   0.89525   0.48687   1.000
    H242    H    0.64490   0.98173   0.22678   1.000
    H243    H    0.98315   0.27833   0.86085   1.000
    H244    H    0.95083   0.80065   0.55722   1.000
    H245    H    0.94749   0.88207   0.64249   1.000
    C246    C    0.32347   0.99117   0.81990   1.000
    C247    C    0.19965   0.00915   0.70490   1.000
    C248    C    0.08526   0.12516   0.42490   1.000
    C249    C    0.20000   0.13040   0.53640   1.000
    C250    C    0.04480   0.75280   0.24260   1.000
    C251    C    0.32540   0.04480   0.81660   1.000
    C252    C    0.26444   0.05294   0.76010   1.000
    C253    C    0.05373   0.81743   0.31190   1.000
    C254    C    0.14230   0.22400   0.57650   1.000
    N255    N    0.15424   0.17314   0.51090   1.000
    Cl256   Cl   0.87560   0.64068   0.14986   1.000
    Cl257   Cl   0.12372   0.88373   0.37271   1.000
    H258    H    0.09408   0.08501   0.37480   1.000
    H259    H    0.04968   0.15742   0.40467   1.000
    H260    H    0.25243   0.16664   0.60297   1.000
    H261    H    0.20970   0.09162   0.48687   1.000
    H262    H    0.08188   0.74506   0.22678   1.000
    H263    H    0.37770   0.08252   0.86085   1.000
    H264    H    0.10638   0.25657   0.55722   1.000
    H265    H    0.19500   0.26043   0.64249   1.000
    C266    C    0.17127   0.50357   0.18010   1.000
    C267    C    0.30425   0.49475   0.29510   1.000
    C268    C    0.70026   0.66036   0.57510   1.000
    C269    C    0.59400   0.66360   0.46360   1.000
    C270    C    0.51020   0.80220   0.75740   1.000
    C271    C    0.22820   0.50880   0.18340   1.000
    C272    C    0.29284   0.50434   0.23990   1.000
    C273    C    0.50553   0.74183   0.68810   1.000
    C274    C    0.64750   0.56580   0.42350   1.000
    N275    N    0.66224   0.64334   0.48910   1.000
    Cl276   Cl   0.49082   0.72574   0.85014   1.000
    Cl277   Cl   0.51102   0.75101   0.62729   1.000
    H278    H    0.71020   0.71927   0.62520   1.000
    H279    H    0.75275   0.64501   0.59533   1.000
    H280    H    0.56367   0.64946   0.39703   1.000
    H281    H    0.60475   0.72283   0.51313   1.000
    H282    H    0.51827   0.85510   0.77322   1.000
    H283    H    0.22167   0.51685   0.13915   1.000
    H284    H    0.69935   0.54917   0.44278   1.000
    H285    H    0.61793   0.55251   0.35751   1.000
    C286    C    0.25357   0.57347   0.83230   1.000
    C287    C    0.24475   0.44965   0.69050   1.000
    C288    C    0.41036   0.33526   0.46010   1.000
    C289    C    0.41360   0.45000   0.56960   1.000
    C290    C    0.55220   0.29480   0.79200   1.000
    C291    C    0.25880   0.57540   0.78060   1.000
    C292    C    0.25434   0.51444   0.71150   1.000
    C293    C    0.49183   0.30373   0.73630   1.000
    C294    C    0.31580   0.39230   0.41830   1.000
    N295    N    0.39334   0.40424   0.48110   1.000
    Cl296   Cl   0.47574   0.12560   0.73492   1.000
    Cl297   Cl   0.50101   0.37372   0.73999   1.000
    H298    H    0.29917   0.35638   0.34982   1.000
    H299    H    0.30251   0.44500   0.43458   1.000
    C300    C    0.74117   0.42127   0.16770   1.000
    C301    C    0.75915   0.55425   0.30950   1.000
    C302    C    0.87516   0.95026   0.53990   1.000
    C303    C    0.88040   0.84400   0.43040   1.000
    C304    C    0.50280   0.76020   0.20800   1.000
    C305    C    0.79480   0.47820   0.21940   1.000
    C306    C    0.80294   0.54284   0.28850   1.000
    C307    C    0.56743   0.75553   0.26370   1.000
    C308    C    0.97400   0.89750   0.58170   1.000
    N309    N    0.92314   0.91224   0.51890   1.000
    Cl310   Cl   0.39068   0.74082   0.26508   1.000
    Cl311   Cl   0.63373   0.76102   0.26001   1.000
    H312    H    0.83501   0.96020   0.49093   1.000
    H313    H    0.90742   0.00275   0.60774   1.000
    H314    H    0.91664   0.81367   0.41421   1.000
    H315    H    0.84162   0.85475   0.38192   1.000
    H316    H    0.49506   0.76827   0.16318   1.000
    H317    H    0.83252   0.47167   0.20482   1.000
    H318    H    0.00657   0.94935   0.65018   1.000
    H319    H    0.01043   0.86793   0.56542   1.000
loop_
    _geom_bond_atom_site_label_1
    _geom_bond_atom_site_label_2
    _geom_bond_distance
    _geom_bond_site_symmetry_2
    _ccdc_geom_bond_type
    H32    C22       1.13993  1_554   S
    H160   C147      1.13993  1_554   S
    N49    C43       1.48586      .   S
    N49    C48       1.49295      .   S
    N49    C42       1.49112  1_554   S
    N114   C108      1.48585      .   S
    N114   C113      1.49295      .   S
    N114   C107      1.49112  1_554   S
    H100   C86       1.13998  1_554   S
    H78    C63       1.13998  1_554   S
    N9     C2        1.49113      .   S
    N9     C8        1.49295      .   S
    N9     C3        1.48585  1_554   S
    N134   C127      1.49112      .   S
    N134   C133      1.49295      .   S
    N134   C128      1.48585  1_554   S
    C43    C127      1.54041      .   S
    C43    H54       1.14001  1_565   S
    C43    H55       1.13998  1_554   S
    C108   C2        1.54041      .   S
    C108   H119      1.14002      .   S
    C108   H120      1.13998  1_554   S
    C2     H13       1.14001      .   S
    C2     H12       1.13993  1_554   S
    C127   H138      1.14002      .   S
    C127   H137      1.13993  1_554   S
    H58    C48       1.14008      .   S
    H123   C113      1.13999      .   S
    H144   C133      1.13993      .   S
    H19    C8        1.14015      .   S
    C23    C85       1.54041      .   S
    C23    H34       1.14002      .   S
    C23    H35       1.13998      .   S
    C23    N29       1.48585  1_554   S
    C148   C62       1.54041      .   S
    C148   H162      1.14002      .   S
    C148   H163      1.13998      .   S
    C148   N74       1.48585  1_554   S
    C85    H98       1.14002      .   S
    C85    H95       1.14010      .   S
    C85    N92       1.49112  1_554   S
    C62    H76       1.14002      .   S
    C62    H75       1.13997      .   S
    C62    N69       1.49112  1_554   S
    C48    C133      1.54285      .   S
    C48    H59       1.13997      .   S
    C113   C8        1.54285      .   S
    C113   H124      1.13993      .   S
    C133   H143      1.13997      .   S
    C8     H18       1.13998      .   S
    Cl94   C90       1.73555      .   S
    Cl71   C67       1.73555  1_455   S
    H223   C211      1.13991      .   S
    H283   C271      1.13991      .   S
    Cl256  C151      1.75655      .   S
    Cl236  C26       1.75656      .   S
    H316   C304      1.13987      .   S
    H202   C192      1.14005      .   S
    C300   C90       1.39297      .   S
    C300   C305      1.39042      .   S
    C188   C67       1.39297      .   S
    C188   C193      1.39043      .   S
    C266   C271      1.39042      .   S
    C266   C72       1.39297      .   S
    C206   C211      1.39043      .   S
    C206   C27       1.39296      .   S
    C271   C272      1.37888      .   S
    C211   C212      1.37888      .   S
    C90    C87       1.37414      .   S
    C67    C64       1.37414  1_655   S
    C146   C151      1.37655      .   S
    C146   C250      1.39449  1_655   S
    C21    C26       1.37655  1_565   S
    C21    C230      1.39450      .   S
    H203   C193      1.13991      .   S
    H317   C305      1.13991      .   S
    C106   C304      1.39450      .   S
    C106   C111      1.37655      .   S
    C41    C192      1.39450      .   S
    C41    C46       1.37654  1_565   S
    C304   C307      1.37414      .   S
    C192   C195      1.37414  1_565   S
    C151   C150      1.37888      .   S
    C26    C25       1.37888      .   S
    C193   C194      1.37888      .   S
    C305   C306      1.37888      .   S
    H242   C230      1.14000      .   S
    H262   C250      1.14006      .   S
    Cl30   C212      1.75656      .   S
    Cl158  C272      1.75656      .   S
    C72    Cl159     1.73555      .   S
    C72    C149      1.37414      .   S
    C27    Cl31      1.73555      .   S
    C27    C24       1.37414      .   S
    C212   C207      1.37654      .   S
    C272   C267      1.37655      .   S
    C250   C253      1.37414      .   S
    C230   C233      1.37414      .   S
    C87    H101      1.14006      .   S
    C87    C301      1.39449      .   S
    C64    H79       1.14000      .   S
    C64    C189      1.39450      .   S
    Cl311  C307      1.73555      .   S
    Cl97   C195      1.73555  1_565   S
    C111   Cl310     1.75656      .   S
    C111   C110      1.37888      .   S
    C46    Cl96      1.75656      .   S
    C46    C45       1.37888      .   S
    C307   C105      1.39297      .   S
    C195   C40       1.39296      .   S
    C25    H37       1.13991      .   S
    C25    C20       1.39043      .   S
    C150   H165      1.13991      .   S
    C150   C145      1.39042  1_655   S
    C194   C189      1.37655  1_655   S
    C194   Cl70      1.75656      .   S
    C306   C301      1.37655      .   S
    C306   Cl93      1.75655      .   S
    C24    C207      1.39450      .   S
    C24    H36       1.14005      .   S
    C149   C267      1.39450      .   S
    C149   H164      1.13987      .   S
    C233   C20       1.39297  1_565   S
    C233   Cl237     1.73555      .   S
    C253   C145      1.39297      .   S
    C253   Cl257     1.73555      .   S
    C45    C40       1.39043      .   S
    C45    H57       1.13991      .   S
    C110   C105      1.39042      .   S
    C110   H122      1.13991      .   S
    H186   C176      1.13998      .   S
    H298   C294      1.13997      .   S
    H225   C214      1.13997      .   S
    H285   C274      1.13993      .   S
    H238   C228      1.13997      .   S
    H258   C248      1.14010      .   S
    H201   C191      1.13998      .   S
    H315   C303      1.13998      .   S
    H181   C170      1.14001      .   S
    H153   C288      1.14002      .   S
    H220   C209      1.14001      .   S
    H280   C269      1.14002      .   S
    H259   C248      1.14002      .   S
    H239   C228      1.14002      .   S
    H200   C191      1.14002  1_655   S
    H314   C303      1.14002      .   S
    C176   C274      1.54285      .   S
    C176   H187      1.14015      .   S
    C176   N177      1.49295      .   S
    C294   C214      1.54285      .   S
    C294   H299      1.13993      .   S
    C294   N295      1.49295      .   S
    C274   H284      1.13999      .   S
    C274   N275      1.49295      .   S
    C214   H224      1.14008      .   S
    C214   N215      1.49295      .   S
    C228   C303      1.54041      .   S
    C228   N235      1.49112      .   S
    C248   C191      1.54041      .   S
    C248   N255      1.49112      .   S
    C191   N197      1.48585      .   S
    C303   N309      1.48585      .   S
    C170   C269      1.54041      .   S
    C170   N177      1.49113      .   S
    C170   H180      1.13993      .   S
    C288   C209      1.54041      .   S
    C288   N295      1.49112      .   S
    C288   H152      1.13993      .   S
    C209   N215      1.48586      .   S
    C209   H221      1.13998      .   S
    C269   N275      1.48585      .   S
    C269   H281      1.13998      .   S
    N177   C171      1.48585      .   S
    N295   C289      1.48585      .   S
    H241   C229      1.13998      .   S
    H261   C249      1.13998      .   S
    N275   C268      1.49112      .   S
    N215   C208      1.49112      .   S
    H312   C302      1.13993      .   S
    H198   C190      1.13993      .   S
    N235   C229      1.48585      .   S
    N235   C234      1.49295      .   S
    N255   C249      1.48586      .   S
    N255   C254      1.49295      .   S
    N197   C190      1.49112      .   S
    N197   C196      1.49295      .   S
    N309   C302      1.49113      .   S
    N309   C308      1.49295      .   S
    C249   C190      1.54041      .   S
    C249   H260      1.14001      .   S
    C229   C302      1.54041      .   S
    C229   H240      1.14002      .   S
    C190   H199      1.14002      .   S
    C302   H313      1.14001  1_565   S
    H244   C234      1.13999      .   S
    H264   C254      1.14008      .   S
    H205   C196      1.13993      .   S
    H319   C308      1.14015  1_455   S
    C289   C208      1.54041      .   S
    C289   H154      1.14002      .   S
    C289   H155      1.13998      .   S
    C171   C268      1.54041      .   S
    C171   H182      1.14002      .   S
    C171   H183      1.13998      .   S
    C208   H219      1.14002      .   S
    C208   H218      1.14010      .   S
    C268   H279      1.14002      .   S
    C268   H278      1.13997      .   S
    C234   C308      1.54285      .   S
    C234   H245      1.13993      .   S
    C254   C196      1.54285      .   S
    C254   H265      1.13997      .   S
    C308   H318      1.13998  1_655   S
    C196   H204      1.13997      .   S
    Cl277  C273      1.73555      .   S
    Cl217  C213      1.73555      .   S
    H80    C65       1.13991      .   S
    H102   C88       1.13991      .   S
    Cl50   C174      1.75655      .   S
    Cl115  C292      1.75656      .   S
    H16    C4        1.13987      .   S
    H141   C129      1.14005      .   S
    C0     C213      1.39297      .   S
    C0     C5        1.39042      .   S
    C125   C273      1.39297      .   S
    C125   C130      1.39043      .   S
    C60    C65       1.39042      .   S
    C60    C175      1.39297      .   S
    C83    C88       1.39043      .   S
    C83    C293      1.39296      .   S
    C65    C66       1.37888  1_565   S
    C88    C89       1.37888      .   S
    C273   C270      1.37414      .   S
    C213   C210      1.37414      .   S
    C169   C174      1.37655      .   S
    C169   C44       1.39449  1_655   S
    C287   C292      1.37655      .   S
    C287   C109      1.39450      .   S
    H142   C130      1.13991      .   S
    H17    C5        1.13991      .   S
    C247   C129      1.39450  1_545   S
    C247   C252      1.37654      .   S
    C227   C4        1.39450      .   S
    C227   C232      1.37655  1_455   S
    C4     C7        1.37414      .   S
    C129   C132      1.37414      .   S
    C174   C173      1.37888  1_655   S
    C292   C291      1.37888      .   S
    C130   C131      1.37888      .   S
    C5     C6        1.37888      .   S
    H56    C44       1.14006  1_655   S
    H121   C109      1.14000      .   S
    Cl178  C66       1.75656      .   S
    Cl296  C89       1.75656      .   S
    C175   Cl179     1.73555      .   S
    C175   C172      1.37414      .   S
    C293   Cl297     1.73555      .   S
    C293   C290      1.37414      .   S
    C66    C61       1.37655      .   S
    C89    C84       1.37654      .   S
    C109   C112      1.37414      .   S
    C44    C47       1.37414      .   S
    C270   H282      1.14000      .   S
    C270   C126      1.39450      .   S
    C210   H222      1.14006      .   S
    C210   C1        1.39449      .   S
    Cl136  C132      1.73555      .   S
    Cl11   C7        1.73555      .   S
    C252   Cl135     1.75656      .   S
    C252   C251      1.37888      .   S
    C232   Cl10      1.75656      .   S
    C232   C231      1.37888      .   S
    C132   C246      1.39296      .   S
    C7     C226      1.39297  1_455   S
    C173   H185      1.13991      .   S
    C173   C168      1.39042      .   S
    C291   H157      1.13991      .   S
    C291   C286      1.39043      .   S
    C6     C1        1.37655      .   S
    C6     Cl216     1.75655      .   S
    C131   C126      1.37655      .   S
    C131   Cl276     1.75656      .   S
    C290   C84       1.39450      .   S
    C290   H156      1.14005      .   S
    C172   C61       1.39450  1_565   S
    C172   H184      1.13987  1_565   S
    C47    C168      1.39297      .   S
    C47    Cl51      1.73555      .   S
    C112   C286      1.39297      .   S
    C112   Cl116     1.73555      .   S
    C231   C226      1.39042      .   S
    C231   H243      1.13991      .   S
    C251   C246      1.39043  1_545   S
    C251   H263      1.13991      .   S
    H38    C28       1.13997      .   S
    H166   C73       1.13998      .   S
    H82    C68       1.13993      .   S
    H104   C91       1.13997  1_565   S
    H117   C107      1.13997      .   S
    H52    C42       1.14010      .   S
    H15    C3        1.13998      .   S
    H140   C128      1.13998      .   S
    H161   C147      1.14001      .   S
    H33    C22       1.14002      .   S
    H77    C63       1.14002      .   S
    H99    C86       1.14001      .   S
    H118   C107      1.14002  1_655   S
    H53    C42       1.14002      .   S
    H14    C3        1.14002      .   S
    H139   C128      1.14002      .   S
    C28    C91       1.54285      .   S
    C28    H39       1.13993      .   S
    C28    N29       1.49295      .   S
    C73    C68       1.54285      .   S
    C73    H167      1.14015      .   S
    C73    N74       1.49295      .   S
    C68    H81       1.13999      .   S
    C68    N69       1.49295      .   S
    C91    H103      1.14008  1_545   S
    C91    N92       1.49295      .   S
    C42    C128      1.54041      .   S
    C107   C3        1.54041      .   S
    C147   C63       1.54041      .   S
    C147   N74       1.49113      .   S
    C22    C86       1.54041      .   S
    C22    N29       1.49112      .   S
    C86    N92       1.48586      .   S
    C63    N69       1.48585      .   S
