# CIF file generated by openbabel 2.4.90, see http://openbabel.sf.net
data_I
_chemical_name_common ''
_cell_length_a 24.7318
_cell_length_b 24.7318
_cell_length_c 24.7318
_cell_angle_alpha 127.653
_cell_angle_beta 127.653
_cell_angle_gamma 77.1881
_space_group_name_H-M_alt 'P 1'
_space_group_name_Hall 'P 1'
loop_
    _symmetry_equiv_pos_as_xyz
    x,y,z
loop_
    _atom_site_label
    _atom_site_type_symbol
    _atom_site_fract_x
    _atom_site_fract_y
    _atom_site_fract_z
    _atom_site_occupancy
    N0      N    0.62500   0.11005   0.98505   1.000
    N1      N    0.98852   0.25075   0.23861   1.000
    N2      N    0.38995   0.87500   0.01495   1.000
    N3      N    0.12500   0.63995   0.01495   1.000
    N4      N    0.01215   0.74991   0.76139   1.000
    N5      N    0.86005   0.37500   0.98505   1.000
    N6      N    0.00075   0.26215   0.76223   1.000
    N7      N    0.36005   0.37500   0.48505   1.000
    N8      N    0.99992   0.76215   0.26139   1.000
    N9      N    0.76148   0.99925   0.26139   1.000
    N10     N    0.26148   0.00008   0.76223   1.000
    N11     N    0.62500   0.61005   0.48505   1.000
    N12     N    0.88995   0.87500   0.51495   1.000
    N13     N    0.48852   0.24991   0.73777   1.000
    N14     N    0.25009   0.01148   0.26223   1.000
    N15     N    0.74925   0.98785   0.73777   1.000
    N16     N    0.73785   0.50009   0.73861   1.000
    N17     N    0.50075   0.73852   0.73861   1.000
    N18     N    0.75009   0.48785   0.23861   1.000
    N19     N    0.12500   0.13995   0.51495   1.000
    N20     N    0.24925   0.51148   0.76139   1.000
    N21     N    0.23785   0.49925   0.23777   1.000
    N22     N    0.51215   0.75075   0.26223   1.000
    N23     N    0.49991   0.23852   0.23777   1.000
    Zr24    Zr   0.01157   0.01157   0.52314   1.000
    O25     O    0.05512   0.06069   0.52070   1.000
    O26     O    0.00774   0.11164   0.62016   1.000
    O27     O    0.11242   0.00852   0.62016   1.000
    O28     O    0.96558   0.96001   0.52070   1.000
    O29     O    0.00851   0.91212   0.41907   1.000
    O30     O    0.91056   0.00695   0.41907   1.000
    Zr31    Zr   0.98843   0.51157   0.00000   1.000
    O32     O    0.99305   0.41212   0.90361   1.000
    O33     O    0.88836   0.50852   0.89610   1.000
    O34     O    0.93931   0.46001   0.99443   1.000
    O35     O    0.08788   0.50695   0.09639   1.000
    O36     O    0.03999   0.56069   0.00557   1.000
    O37     O    0.99148   0.61164   0.10390   1.000
    Zr38    Zr   0.48843   0.48843   0.47686   1.000
    O39     O    0.49148   0.38758   0.37984   1.000
    O40     O    0.53999   0.53442   0.47930   1.000
    O41     O    0.38836   0.49226   0.37984   1.000
    O42     O    0.58788   0.49149   0.58093   1.000
    O43     O    0.49305   0.58944   0.58093   1.000
    O44     O    0.43931   0.44488   0.47930   1.000
    Zr45    Zr   0.26157   0.76157   0.02314   1.000
    O46     O    0.25852   0.86242   0.12016   1.000
    O47     O    0.21001   0.71558   0.02070   1.000
    O48     O    0.36164   0.75774   0.12016   1.000
    O49     O    0.16212   0.75851   0.91907   1.000
    O50     O    0.25695   0.66056   0.91907   1.000
    O51     O    0.31069   0.80512   0.02070   1.000
    Zr52    Zr   0.23843   0.26157   0.50000   1.000
    O53     O    0.13758   0.25774   0.39610   1.000
    O54     O    0.33944   0.25851   0.59639   1.000
    O55     O    0.19488   0.21558   0.50557   1.000
    O56     O    0.24149   0.16056   0.40361   1.000
    O57     O    0.24226   0.36242   0.60390   1.000
    O58     O    0.28442   0.30512   0.49443   1.000
    Zr59    Zr   0.76157   0.73843   0.50000   1.000
    O60     O    0.66212   0.74305   0.40361   1.000
    O61     O    0.71001   0.68931   0.49443   1.000
    O62     O    0.75852   0.63836   0.39610   1.000
    O63     O    0.86164   0.74148   0.60390   1.000
    O64     O    0.75695   0.83788   0.59639   1.000
    O65     O    0.81069   0.78999   0.50557   1.000
    Zr66    Zr   0.73843   0.23843   0.97686   1.000
    O67     O    0.69488   0.18931   0.97930   1.000
    O68     O    0.83944   0.24305   0.08093   1.000
    O69     O    0.74149   0.33788   0.08093   1.000
    O70     O    0.78442   0.28999   0.97930   1.000
    O71     O    0.74226   0.13836   0.87984   1.000
    O72     O    0.63758   0.24148   0.87984   1.000
    Zr73    Zr   0.51157   0.98843   0.00000   1.000
    O74     O    0.50851   0.08944   0.09639   1.000
    O75     O    0.41056   0.99149   0.90361   1.000
    O76     O    0.46558   0.94488   0.00557   1.000
    O77     O    0.61242   0.99226   0.10390   1.000
    O78     O    0.50774   0.88758   0.89610   1.000
    O79     O    0.55512   0.03442   0.99443   1.000
loop_
    _geom_bond_atom_site_label_1
    _geom_bond_atom_site_label_2
    _geom_bond_distance
    _geom_bond_site_symmetry_2
    _ccdc_geom_bond_type
    Zr24   O25       1.84083      .   S
    N19    O25       2.99890      .   S
    Zr24   O26       2.19305      .   S
    N6     O26       3.27247      .   S
    Zr24   O27       2.19305      .   S
    N10    O27       3.27246      .   S
    Zr24   O28       1.84082  1_445   S
    N12    O28       2.99887      .   S
    Zr24   O29       2.18869  1_545   S
    N8     O29       3.26725  1_655   S
    Zr24   O30       2.18869  1_455   S
    N9     O30       3.26726  1_565   S
    Zr31   O32       2.18869  1_554   S
    N6     O32       3.26724  1_455   S
    Zr31   O33       2.19305  1_554   S
    N16    O33       3.27246      .   S
    Zr31   O34       1.84082  1_554   S
    N5     O34       2.99890      .   S
    Zr31   O35       2.18869  1_655   S
    N21    O35       3.26724      .   S
    Zr31   O36       1.84082  1_655   S
    N3     O36       2.99890      .   S
    Zr31   O37       2.19305      .   S
    N8     O37       3.27246      .   S
    Zr38   O39       2.19305      .   S
    N23    O39       3.27246      .   S
    Zr38   O40       1.84082      .   S
    N11    O40       2.99887      .   S
    Zr38   O41       2.19305      .   S
    N21    O41       3.27247      .   S
    Zr38   O42       2.18869      .   S
    N16    O42       3.26725      .   S
    Zr38   O43       2.18869      .   S
    N17    O43       3.26726      .   S
    Zr38   O44       1.84083      .   S
    N7     O44       2.99890      .   S
    Zr45   O46       2.19305      .   S
    N14    O46       3.27246  1_545   S
    Zr45   O47       1.84082      .   S
    N3     O47       2.99887      .   S
    Zr45   O48       2.19305      .   S
    N22    O48       3.27247      .   S
    Zr45   O49       2.18869  1_554   S
    N4     O49       3.26725      .   S
    Zr45   O50       2.18869  1_554   S
    N20    O50       3.26726      .   S
    Zr45   O51       1.84083      .   S
    N2     O51       2.99890      .   S
    Zr52   O53       2.19305      .   S
    N1     O53       3.27245  1_655   S
    Zr52   O54       2.18869      .   S
    N13    O54       3.26725      .   S
    Zr52   O55       1.84082      .   S
    N19    O55       2.99887      .   S
    Zr52   O56       2.18869      .   S
    N14    O56       3.26725      .   S
    Zr52   O57       2.19305      .   S
    N20    O57       3.27245      .   S
    Zr52   O58       1.84082      .   S
    N7     O58       2.99887      .   S
    Zr59   O60       2.18869      .   S
    N22    O60       3.26724      .   S
    Zr59   O61       1.84082      .   S
    N11    O61       2.99890      .   S
    Zr59   O62       2.19305      .   S
    N18    O62       3.27246      .   S
    Zr59   O63       2.19305      .   S
    N4     O63       3.27246  1_455   S
    Zr59   O64       2.18869      .   S
    N15    O64       3.26724      .   S
    Zr59   O65       1.84082      .   S
    N12    O65       2.99890      .   S
    Zr66   O67       1.84083      .   S
    N0     O67       2.99890      .   S
    Zr66   O68       2.18869  1_556   S
    N1     O68       3.26726      .   S
    Zr66   O69       2.18869  1_556   S
    N18    O69       3.26725      .   S
    Zr66   O70       1.84082      .   S
    N5     O70       2.99887      .   S
    Zr66   O71       2.19305      .   S
    N15    O71       3.27247  1_565   S
    Zr66   O72       2.19305      .   S
    N13    O72       3.27246      .   S
    Zr73   O74       2.18869  1_565   S
    N23    O74       3.26725      .   S
    Zr73   O75       2.18869  1_554   S
    N10    O75       3.26725  1_545   S
    Zr73   O76       1.84082      .   S
    N2     O76       2.99887      .   S
    Zr73   O77       2.19305      .   S
    N9     O77       3.27245      .   S
    Zr73   O78       2.19305  1_554   S
    N17    O78       3.27245      .   S
    Zr73   O79       1.84082  1_564   S
    N0     O79       2.99887      .   S
