# CIF file generated by openbabel 2.4.90, see http://openbabel.sf.net
data_I
_chemical_name_common ''
_cell_length_a 6.5472
_cell_length_b 7.5305
_cell_length_c 12.7118
_cell_angle_alpha 107.23
_cell_angle_beta 103.555
_cell_angle_gamma 90
_space_group_name_H-M_alt 'P 1'
_space_group_name_Hall 'P 1'
loop_
    _symmetry_equiv_pos_as_xyz
    x,y,z
loop_
    _atom_site_label
    _atom_site_type_symbol
    _atom_site_fract_x
    _atom_site_fract_y
    _atom_site_fract_z
    _atom_site_occupancy
    Zr0     Zr   0.00000   0.00000   0.00000   1.000
    Zr1     Zr   0.50000   0.00000   0.00000   1.000
    Zr2     Zr   0.25000   0.90100   0.00000   1.000
    Zr3     Zr   0.75000   0.09900   0.00000   1.000
    O4      O    0.37500   0.95050   0.00000   1.000
    O5      O    0.62500   0.04950   0.00000   1.000
    O6      O    0.12500   0.95050   0.00000   1.000
    O7      O    0.87500   0.04950   0.00000   1.000
    N8      N    0.50021   0.49991   0.49975   1.000
    O9      O    0.51536   0.69458   0.72662   1.000
    O10     O    0.48486   0.30533   0.27312   1.000
    O11     O    0.28801   0.30146   0.28377   1.000
    O12     O    0.71221   0.69846   0.71597   1.000
    N13     N    0.99994   0.00016   0.50033   1.000
    O14     O    0.21207   0.01768   0.71627   1.000
    O15     O    0.01522   0.03220   0.72692   1.000
    O16     O    0.78787   0.98248   0.28407   1.000
    O17     O    0.98472   0.96795   0.27342   1.000
loop_
    _geom_bond_atom_site_label_1
    _geom_bond_atom_site_label_2
    _geom_bond_distance
    _geom_bond_site_symmetry_2
    _ccdc_geom_bond_type
    Zr1    O4        0.89929  1_545   S
    Zr2    O4        0.89929      .   S
    Zr1    O5        0.89929      .   S
    Zr3    O5        0.89929      .   S
    Zr0    O6        0.89929  1_545   S
    Zr2    O6        0.89929      .   S
    Zr0    O7        0.89929  1_455   S
    Zr3    O7        0.89929      .   S
    N8     O9        2.79958      .   S
    Zr1    O9        3.57842  1_544   S
    N8     O10       2.79637      .   S
    Zr1    O10       3.57531      .   S
    N8     O11       2.73540      .   S
    Zr0    O11       3.69889      .   S
    N8     O12       2.73750      .   S
    Zr0    O12       3.70087  1_444   S
    N13    O14       2.73483  1_655   S
    Zr1    O14       3.69832  1_554   S
    N13    O15       2.79599  1_655   S
    Zr0    O15       3.57495  1_554   S
    N13    O16       2.73809  1_545   S
    Zr1    O16       3.70146  1_545   S
    N13    O17       2.79998  1_545   S
    Zr0    O17       3.57881  1_445   S
