# CIF file generated by openbabel 2.4.90, see http://openbabel.sf.net
data_I
_chemical_name_common ''
_cell_length_a 7.8022
_cell_length_b 11.1795
_cell_length_c 13.4306
_cell_angle_alpha 114.595
_cell_angle_beta 102.582
_cell_angle_gamma 90
_space_group_name_H-M_alt 'P 1'
_space_group_name_Hall 'P 1'
loop_
    _symmetry_equiv_pos_as_xyz
    x,y,z
loop_
    _atom_site_label
    _atom_site_type_symbol
    _atom_site_fract_x
    _atom_site_fract_y
    _atom_site_fract_z
    _atom_site_occupancy
    Zr0     Zr   0.67802   0.03151   0.11366   1.000
    Zr1     Zr   0.82232   0.91885   0.88640   1.000
    Zr2     Zr   0.32232   0.96827   0.88647   1.000
    Zr3     Zr   0.17806   0.08188   0.11366   1.000
    Zr4     Zr   0.41790   0.08843   0.05829   1.000
    Zr5     Zr   0.08271   0.03067   0.94185   1.000
    Zr6     Zr   0.58265   0.91168   0.94172   1.000
    Zr7     Zr   0.91784   0.96975   0.05814   1.000
    O8      O    0.79793   0.00063   0.08590   1.000
    O9      O    0.87008   0.94430   0.97227   1.000
    O10     O    0.29798   0.08515   0.08597   1.000
    O11     O    0.37011   0.02835   0.97238   1.000
    O12     O    0.63033   0.97160   0.02769   1.000
    O13     O    0.13038   0.05628   0.02775   1.000
    O14     O    0.70249   0.91526   0.91406   1.000
    O15     O    0.20251   0.99947   0.91416   1.000
    O16     O    0.54796   0.05997   0.08597   1.000
    O17     O    0.95252   0.97476   0.91412   1.000
    O18     O    0.45248   0.93998   0.91409   1.000
    O19     O    0.04795   0.02582   0.08590   1.000
    N20     N    0.48130   0.01807   0.39438   1.000
    O21     O    0.56483   0.00693   0.33733   1.000
    O22     O    0.37921   0.04702   0.34595   1.000
    N23     N    0.74983   0.33774   0.00075   1.000
    O24     O    0.72309   0.29452   0.05026   1.000
    O25     O    0.77665   0.24534   0.95100   1.000
    N26     N    0.01857   0.62336   0.60535   1.000
    O27     O    0.93456   0.66985   0.66214   1.000
    O28     O    0.12126   0.70041   0.65402   1.000
    N29     N    0.25008   0.66236   0.00006   1.000
    O30     O    0.27690   0.70541   0.95046   1.000
    O31     O    0.22323   0.75501   0.04968   1.000
    C32     C    0.74996   0.60973   0.00058   1.000
    O33     O    0.71935   0.70195   0.04884   1.000
    O34     O    0.78078   0.65389   0.95191   1.000
    O35     O    0.74976   0.47334   0.00099   1.000
    C36     C    0.98134   0.37638   0.39447   1.000
    O37     O    0.06507   0.33030   0.33754   1.000
    O38     O    0.87905   0.29903   0.34599   1.000
    O39     O    0.99991   0.49981   0.49990   1.000
    C40     C    0.25014   0.39034   0.00005   1.000
    O41     O    0.28092   0.29796   0.95162   1.000
    O42     O    0.21940   0.34639   0.04847   1.000
    O43     O    0.25010   0.52667   0.00006   1.000
    C44     C    0.51854   0.98238   0.60536   1.000
    O45     O    0.43465   0.99293   0.66227   1.000
    O46     O    0.62110   0.95395   0.65398   1.000
    O47     O    0.49985   0.00027   0.49985   1.000
loop_
    _geom_bond_atom_site_label_1
    _geom_bond_atom_site_label_2
    _geom_bond_distance
    _geom_bond_site_symmetry_2
    _ccdc_geom_bond_type
    Zr7    O8        1.08549  1_565   S
    Zr0    O8        1.08549      .   S
    Zr7    O9        1.04379  1_554   S
    Zr1    O9        1.04379      .   S
    Zr4    O10       1.08532      .   S
    Zr3    O10       1.08532      .   S
    Zr4    O11       1.04352  1_554   S
    Zr2    O11       1.04352  1_565   S
    Zr0    O12       1.04370  1_545   S
    Zr6    O12       1.04370  1_556   S
    Zr3    O13       1.04382      .   S
    Zr5    O13       1.04382  1_556   S
    Zr1    O14       1.08513      .   S
    Zr6    O14       1.08513      .   S
    Zr2    O15       1.08498      .   S
    Zr5    O15       1.08498  1_545   S
    Zr4    O16       1.09695      .   S
    Zr0    O16       1.09695      .   S
    Zr5    O17       1.09666  1_445   S
    Zr1    O17       1.09666      .   S
    Zr6    O18       1.09665      .   S
    Zr2    O18       1.09665      .   S
    Zr7    O19       1.09680  1_665   S
    Zr3    O19       1.09680      .   S
    N20    O21       1.07955      .   S
    Zr0    O21       3.42380      .   S
    N20    O22       1.05439      .   S
    Zr3    O22       3.35063      .   S
    N23    O24       1.02320      .   S
    Zr0    O24       3.42184      .   S
    N23    O25       1.02154  1_554   S
    Zr1    O25       3.42068  1_565   S
    N26    O27       1.08135  1_455   S
    Zr1    O27       3.42898      .   S
    N26    O28       1.05562      .   S
    Zr2    O28       3.35544      .   S
    N29    O30       1.02319  1_554   S
    Zr2    O30       3.42560      .   S
    N29    O31       1.02320      .   S
    Zr3    O31       3.42554  1_545   S
    C32    O33       1.02532      .   S
    Zr0    O33       3.44800  1_545   S
    C32    O34       1.03241  1_554   S
    Zr1    O34       3.45648      .   S
    C32    O35       1.52702      .   S
    N23    O35       1.51465      .   S
    C36    O37       1.08011  1_655   S
    Zr3    O37       3.42560      .   S
    C36    O38       1.05526      .   S
    Zr0    O38       3.35273      .   S
    C36    O39       1.48800      .   S
    N26    O39       1.48883  1_455   S
    C40    O41       1.02770  1_554   S
    Zr2    O41       3.44872  1_565   S
    C40    O42       1.02754      .   S
    Zr3    O42       3.44859      .   S
    C40    O43       1.52403      .   S
    N29    O43       1.51697      .   S
    C44    O45       1.08128      .   S
    Zr2    O45       3.42813      .   S
    C44    O46       1.05491      .   S
    Zr1    O46       3.35370      .   S
    C44    O47       1.48843  1_565   S
    N20    O47       1.48748      .   S
