# CIF file generated by openbabel 2.4.90, see http://openbabel.sf.net
data_I
_chemical_name_common ''
_cell_length_a 7.8022
_cell_length_b 11.1795
_cell_length_c 13.4306
_cell_angle_alpha 114.595
_cell_angle_beta 102.582
_cell_angle_gamma 90
_space_group_name_H-M_alt 'P 1'
_space_group_name_Hall 'P 1'
loop_
    _symmetry_equiv_pos_as_xyz
    x,y,z
loop_
    _atom_site_label
    _atom_site_type_symbol
    _atom_site_fract_x
    _atom_site_fract_y
    _atom_site_fract_z
    _atom_site_occupancy
    Zr0     Zr   0.67802   0.03151   0.11366   1.000
    Zr1     Zr   0.82232   0.91885   0.88640   1.000
    Zr2     Zr   0.32232   0.96827   0.88647   1.000
    Zr3     Zr   0.17806   0.08188   0.11366   1.000
    Zr4     Zr   0.41790   0.08843   0.05829   1.000
    Zr5     Zr   0.08271   0.03067   0.94185   1.000
    Zr6     Zr   0.58265   0.91168   0.94172   1.000
    Zr7     Zr   0.91784   0.96975   0.05814   1.000
    O8      O    0.79793   0.00063   0.08590   1.000
    O9      O    0.87008   0.94430   0.97227   1.000
    O10     O    0.29798   0.08515   0.08597   1.000
    O11     O    0.37011   0.02835   0.97238   1.000
    O12     O    0.63033   0.97160   0.02769   1.000
    O13     O    0.13038   0.05628   0.02775   1.000
    O14     O    0.70249   0.91526   0.91406   1.000
    O15     O    0.20251   0.99947   0.91416   1.000
    O16     O    0.54796   0.05997   0.08597   1.000
    O17     O    0.95252   0.97476   0.91412   1.000
    O18     O    0.45248   0.93998   0.91409   1.000
    O19     O    0.04795   0.02582   0.08590   1.000
    N20     N    0.49985   0.00027   0.49985   1.000
    O21     O    0.56483   0.00693   0.33733   1.000
    O22     O    0.37921   0.04702   0.34595   1.000
    O23     O    0.43465   0.99293   0.66227   1.000
    O24     O    0.62110   0.95395   0.65398   1.000
    N25     N    0.74976   0.47334   0.00099   1.000
    O26     O    0.72309   0.29452   0.05026   1.000
    O27     O    0.71935   0.70195   0.04884   1.000
    O28     O    0.77665   0.24534   0.95100   1.000
    O29     O    0.78078   0.65389   0.95191   1.000
    N30     N    0.99991   0.49981   0.49990   1.000
    O31     O    0.93456   0.66985   0.66214   1.000
    O32     O    0.12126   0.70041   0.65402   1.000
    O33     O    0.06507   0.33030   0.33754   1.000
    O34     O    0.87905   0.29903   0.34599   1.000
    N35     N    0.25010   0.52667   0.00006   1.000
    O36     O    0.27690   0.70541   0.95046   1.000
    O37     O    0.28092   0.29796   0.95162   1.000
    O38     O    0.22323   0.75501   0.04968   1.000
    O39     O    0.21940   0.34639   0.04847   1.000
loop_
    _geom_bond_atom_site_label_1
    _geom_bond_atom_site_label_2
    _geom_bond_distance
    _geom_bond_site_symmetry_2
    _ccdc_geom_bond_type
    Zr7    O8        1.08549  1_565   S
    Zr0    O8        1.08549      .   S
    Zr7    O9        1.04379  1_554   S
    Zr1    O9        1.04379      .   S
    Zr4    O10       1.08532      .   S
    Zr3    O10       1.08532      .   S
    Zr4    O11       1.04352  1_554   S
    Zr2    O11       1.04352  1_565   S
    Zr0    O12       1.04370  1_545   S
    Zr6    O12       1.04370  1_556   S
    Zr3    O13       1.04382      .   S
    Zr5    O13       1.04382  1_556   S
    Zr1    O14       1.08513      .   S
    Zr6    O14       1.08513      .   S
    Zr2    O15       1.08498      .   S
    Zr5    O15       1.08498  1_545   S
    Zr4    O16       1.09695      .   S
    Zr0    O16       1.09695      .   S
    Zr5    O17       1.09666  1_445   S
    Zr1    O17       1.09666      .   S
    Zr6    O18       1.09665      .   S
    Zr2    O18       1.09665      .   S
    Zr7    O19       1.09680  1_665   S
    Zr3    O19       1.09680      .   S
    N20    O21       2.37578      .   S
    Zr0    O21       3.42380      .   S
    N20    O22       2.34164      .   S
    Zr3    O22       3.35063      .   S
    N20    O23       2.37831  1_545   S
    Zr2    O23       3.42813      .   S
    N20    O24       2.34251  1_545   S
    Zr1    O24       3.35370      .   S
    N25    O26       2.37458      .   S
    Zr0    O26       3.42184      .   S
    N25    O27       2.38752      .   S
    Zr0    O27       3.44800  1_545   S
    N25    O28       2.37244  1_554   S
    Zr1    O28       3.42068  1_565   S
    N25    O29       2.39668  1_554   S
    Zr1    O29       3.45648      .   S
    N30    O31       2.37855      .   S
    Zr1    O31       3.42898      .   S
    N30    O32       2.34362  1_655   S
    Zr2    O32       3.35544      .   S
    N30    O33       2.37655  1_655   S
    Zr3    O33       3.42560      .   S
    N30    O34       2.34283      .   S
    Zr0    O34       3.35273      .   S
    N35    O36       2.37682  1_554   S
    Zr2    O36       3.42560      .   S
    N35    O37       2.38785  1_554   S
    Zr2    O37       3.44872  1_565   S
    N35    O38       2.37684      .   S
    Zr3    O38       3.42554  1_545   S
    N35    O39       2.38765      .   S
    Zr3    O39       3.44859      .   S
