# CIF file generated by openbabel 2.4.90, see http://openbabel.sf.net
data_I
_chemical_name_common ''
_cell_length_a 7.8022
_cell_length_b 11.1795
_cell_length_c 13.4306
_cell_angle_alpha 114.595
_cell_angle_beta 102.582
_cell_angle_gamma 90
_space_group_name_H-M_alt 'P 1'
_space_group_name_Hall 'P 1'
loop_
    _symmetry_equiv_pos_as_xyz
    x,y,z
loop_
    _atom_site_label
    _atom_site_type_symbol
    _atom_site_fract_x
    _atom_site_fract_y
    _atom_site_fract_z
    _atom_site_occupancy
    C0      C    0.46817   0.04361   0.29562   1.000
    C1      C    0.03185   0.74775   0.70395   1.000
    C2      C    0.53172   0.95697   0.70414   1.000
    C3      C    0.96812   0.25188   0.29590   1.000
    C4      C    0.74975   0.21215   0.00073   1.000
    C5      C    0.75058   0.73474   0.99935   1.000
    C6      C    0.24989   0.78819   0.00008   1.000
    C7      C    0.25029   0.26549   0.00003   1.000
