# CIF file generated by openbabel 2.4.90, see http://openbabel.sf.net
data_I
_chemical_name_common ''
_cell_length_a 7.8022
_cell_length_b 11.1795
_cell_length_c 13.4306
_cell_angle_alpha 114.595
_cell_angle_beta 102.582
_cell_angle_gamma 90
_space_group_name_H-M_alt 'P 1'
_space_group_name_Hall 'P 1'
loop_
    _symmetry_equiv_pos_as_xyz
    x,y,z
loop_
    _atom_site_label
    _atom_site_type_symbol
    _atom_site_fract_x
    _atom_site_fract_y
    _atom_site_fract_z
    _atom_site_occupancy
    Zr0     Zr   0.67802   0.03151   0.11366   1.000
    Zr1     Zr   0.82232   0.91885   0.88640   1.000
    Zr2     Zr   0.32232   0.96827   0.88647   1.000
    Zr3     Zr   0.17806   0.08188   0.11366   1.000
    Zr4     Zr   0.46817   0.04361   0.29562   1.000
    Zr5     Zr   0.03185   0.74775   0.70395   1.000
    Zr6     Zr   0.53172   0.95697   0.70414   1.000
    Zr7     Zr   0.96812   0.25188   0.29590   1.000
    Zr8     Zr   0.74975   0.21215   0.00073   1.000
    Zr9     Zr   0.75058   0.73474   0.99935   1.000
    Zr10    Zr   0.24989   0.78819   0.00008   1.000
    Zr11    Zr   0.25029   0.26549   0.00003   1.000
    Zr12    Zr   0.71483   0.19991   0.08541   1.000
    Zr13    Zr   0.58161   0.99567   0.23596   1.000
    Zr14    Zr   0.41790   0.08843   0.05829   1.000
    Zr15    Zr   0.69987   0.82960   0.07972   1.000
    Zr16    Zr   0.33907   0.10568   0.27044   1.000
    Zr17    Zr   0.78475   0.11584   0.91561   1.000
    Zr18    Zr   0.91610   0.76092   0.76235   1.000
    Zr19    Zr   0.08271   0.03067   0.94185   1.000
    Zr20    Zr   0.80126   0.75003   0.91928   1.000
    Zr21    Zr   0.16290   0.83376   0.72981   1.000
    Zr22    Zr   0.28507   0.80004   0.91525   1.000
    Zr23    Zr   0.41659   0.00290   0.76290   1.000
    Zr24    Zr   0.58265   0.91168   0.94172   1.000
    Zr25    Zr   0.30116   0.17025   0.91990   1.000
    Zr26    Zr   0.66238   0.89641   0.72982   1.000
    Zr27    Zr   0.21467   0.88482   0.08493   1.000
    Zr28    Zr   0.08240   0.23969   0.23669   1.000
    Zr29    Zr   0.91784   0.96975   0.05814   1.000
    Zr30    Zr   0.19934   0.25034   0.08012   1.000
    Zr31    Zr   0.83836   0.16501   0.27049   1.000
    O32     O    0.22482   0.25792   0.04007   1.000
    O33     O    0.27572   0.21787   0.95996   1.000
    O34     O    0.23228   0.83651   0.04250   1.000
    O35     O    0.26748   0.79412   0.95766   1.000
    O36     O    0.73229   0.20603   0.04307   1.000
    O37     O    0.76725   0.16399   0.95817   1.000
    O38     O    0.79793   0.00063   0.08590   1.000
    O39     O    0.87008   0.94430   0.97227   1.000
    O40     O    0.29798   0.08515   0.08597   1.000
    O41     O    0.37011   0.02835   0.97238   1.000
    O42     O    0.68895   0.93055   0.09669   1.000
    O43     O    0.72523   0.78217   0.03953   1.000
    O44     O    0.18870   0.16611   0.09689   1.000
    O45     O    0.19636   0.98335   0.09929   1.000
    O46     O    0.69642   0.11571   0.09953   1.000
    O47     O    0.62981   0.01359   0.17481   1.000
    O48     O    0.75819   0.09826   0.19207   1.000
    O49     O    0.63033   0.97160   0.02769   1.000
    O50     O    0.13023   0.16079   0.17517   1.000
    O51     O    0.25856   0.09378   0.19205   1.000
    O52     O    0.13038   0.05628   0.02775   1.000
    O53     O    0.52489   0.01964   0.26579   1.000
    O54     O    0.02526   0.24578   0.26629   1.000
    O55     O    0.40362   0.07465   0.28303   1.000
    O56     O    0.90324   0.20845   0.28319   1.000
    O57     O    0.09737   0.79075   0.71688   1.000
    O58     O    0.97398   0.75433   0.73315   1.000
    O59     O    0.59705   0.92669   0.71698   1.000
    O60     O    0.47415   0.97994   0.73352   1.000
    O61     O    0.24261   0.90102   0.80814   1.000
    O62     O    0.74235   0.90763   0.80811   1.000
    O63     O    0.86921   0.83988   0.82437   1.000
    O64     O    0.36945   0.98559   0.82468   1.000
    O65     O    0.80353   0.01734   0.90100   1.000
    O66     O    0.81179   0.83444   0.90284   1.000
    O67     O    0.70249   0.91526   0.91406   1.000
    O68     O    0.30369   0.88416   0.90086   1.000
    O69     O    0.31174   0.06926   0.90318   1.000
    O70     O    0.20251   0.99947   0.91416   1.000
    O71     O    0.77592   0.74238   0.95931   1.000
    O72     O    0.54796   0.05997   0.08597   1.000
    O73     O    0.95252   0.97476   0.91412   1.000
    O74     O    0.45248   0.93998   0.91409   1.000
    O75     O    0.04795   0.02582   0.08590   1.000
    N76     N    0.74951   0.47312   0.00157   1.000
    O77     O    0.74958   0.37616   0.00133   1.000
    O78     O    0.75003   0.57061   0.00045   1.000
    N79     N    0.49981   0.00031   0.49987   1.000
    O80     O    0.48840   0.01682   0.42412   1.000
    O81     O    0.51129   0.98379   0.57563   1.000
    N82     N    0.25012   0.52675   0.00006   1.000
    O83     O    0.25002   0.62400   0.00007   1.000
    O84     O    0.25019   0.42957   0.00005   1.000
    N85     N    0.99988   0.49979   0.49992   1.000
    O86     O    0.98843   0.40739   0.42426   1.000
    O87     O    0.01138   0.59221   0.57558   1.000
loop_
    _geom_bond_atom_site_label_1
    _geom_bond_atom_site_label_2
    _geom_bond_distance
    _geom_bond_site_symmetry_2
    _ccdc_geom_bond_type
    Zr11   O32       0.64840      .   S
    Zr30   O32       0.64840      .   S
    Zr11   O33       0.64839  1_554   S
    Zr25   O33       0.64839      .   S
    Zr10   O34       0.64282      .   S
    Zr27   O34       0.64282      .   S
    Zr10   O35       0.64281  1_554   S
    Zr22   O35       0.64281      .   S
    Zr8    O36       0.64245      .   S
    Zr12   O36       0.64245      .   S
    Zr8    O37       0.64269  1_554   S
    Zr17   O37       0.64269      .   S
    Zr29   O38       1.08549  1_565   S
    Zr0    O38       1.08549      .   S
    Zr29   O39       1.04379  1_554   S
    Zr1    O39       1.04379      .   S
    Zr14   O40       1.08532      .   S
    Zr3    O40       1.08532      .   S
    Zr14   O41       1.04352  1_554   S
    Zr2    O41       1.04352  1_565   S
    Zr15   O42       1.06177      .   S
    Zr0    O42       1.06177  1_545   S
    Zr15   O43       0.64798      .   S
    Zr9    O43       0.64798  1_556   S
    Zr30   O44       1.06255      .   S
    Zr3    O44       1.06255      .   S
    Zr27   O45       1.05170      .   S
    Zr3    O45       1.05170  1_545   S
    Zr12   O46       1.05033      .   S
    Zr0    O46       1.05033      .   S
    Zr0    O47       1.06190      .   S
    Zr13   O47       1.06190  1_565   S
    Zr0    O48       1.05644      .   S
    Zr31   O48       1.05644      .   S
    Zr0    O49       1.04370  1_545   S
    Zr24   O49       1.04370  1_556   S
    Zr3    O50       1.06191      .   S
    Zr28   O50       1.06191      .   S
    Zr3    O51       1.05639      .   S
    Zr16   O51       1.05639      .   S
    Zr3    O52       1.04382      .   S
    Zr19   O52       1.04382  1_556   S
    Zr13   O53       0.64501  1_565   S
    Zr4    O53       0.64501      .   S
    Zr28   O54       0.64511      .   S
    Zr7    O54       0.64511  1_655   S
    Zr16   O55       0.64370      .   S
    Zr4    O55       0.64370      .   S
    Zr31   O56       0.64385      .   S
    Zr7    O56       0.64385      .   S
    Zr5    O57       0.64381      .   S
    Zr21   O57       0.64381      .   S
    Zr5    O58       0.64517  1_455   S
    Zr18   O58       0.64517      .   S
    Zr6    O59       0.64377      .   S
    Zr26   O59       0.64377      .   S
    Zr6    O60       0.64515      .   S
    Zr23   O60       0.64515  1_545   S
    Zr21   O61       1.05611      .   S
    Zr2    O61       1.05611      .   S
    Zr26   O62       1.05595      .   S
    Zr1    O62       1.05595      .   S
    Zr18   O63       1.06195      .   S
    Zr1    O63       1.06195      .   S
    Zr23   O64       1.06206  1_545   S
    Zr2    O64       1.06206      .   S
    Zr1    O65       1.05127  1_565   S
    Zr17   O65       1.05127      .   S
    Zr1    O66       1.06176      .   S
    Zr20   O66       1.06176      .   S
    Zr1    O67       1.08513      .   S
    Zr24   O67       1.08513      .   S
    Zr2    O68       1.05179      .   S
    Zr22   O68       1.05179      .   S
    Zr2    O69       1.06254  1_565   S
    Zr25   O69       1.06254      .   S
    Zr2    O70       1.08498      .   S
    Zr19   O70       1.08498  1_545   S
    Zr20   O71       0.64813      .   S
    Zr9    O71       0.64813      .   S
    Zr14   O72       1.09695      .   S
    Zr0    O72       1.09695      .   S
    Zr19   O73       1.09666  1_445   S
    Zr1    O73       1.09666      .   S
    Zr24   O74       1.09665      .   S
    Zr2    O74       1.09665      .   S
    Zr29   O75       1.09680  1_665   S
    Zr3    O75       1.09680      .   S
    N76    O77       1.08257      .   S
    Zr8    O77       1.83021      .   S
    N76    O78       1.09631      .   S
    Zr9    O78       1.84110  1_556   S
    N79    O80       1.09268      .   S
    Zr4    O80       1.84517      .   S
    N79    O81       1.09276  1_545   S
    Zr6    O81       1.84530      .   S
    N82    O83       1.08716      .   S
    Zr10   O83       1.83548      .   S
    N82    O84       1.08640      .   S
    Zr11   O84       1.83420      .   S
    N85    O86       1.09285      .   S
    Zr7    O86       1.84548      .   S
    N85    O87       1.09290  1_655   S
    Zr5    O87       1.84559      .   S
